
#######################################################################
#
#                 Cambridge Crystallographic Data Centre
#                                CCDC 
#
#######################################################################
#
# If this CIF has been generated from an entry in the Cambridge 
# Structural Database, then it will include bibliographic, chemical, 
# crystal, experimental, refinement or atomic coordinate data resulting 
# from the CCDC's data processing and validation procedures.
#
#######################################################################

data_ZAQHUX
_chemical_formula_moiety         'C21 H26 N2 O2'
_chemical_name_systematic        
3-acetyl-1-methyl-7,8,8a,8b,9,12,13,14,14a,14b-decahydro-6H,11H-indolo[3,2,1-ij]pyrido[1,2-g][1,6]naphthyridin-11-one
_symmetry_cell_setting           orthorhombic
_symmetry_space_group_name_H-M   'P 21 21 21'
_symmetry_Int_Tables_number      19
_space_group_name_Hall           'P 2ac 2ab'
loop_
_symmetry_equiv_pos_site_id
_symmetry_equiv_pos_as_xyz
1 x,y,z
2 1/2-x,-y,1/2+z
3 1/2+x,1/2-y,-z
4 -x,1/2+y,1/2-z
_cell_length_a                   8.79383(14)
_cell_length_b                   10.52678(20)
_cell_length_c                   18.4716(3)
_cell_angle_alpha                90
_cell_angle_beta                 90
_cell_angle_gamma                90
_cell_volume                     1709.93
_exptl_crystal_colour            'light colorless'
_exptl_crystal_description       block
_cell_formula_units_Z            4
loop_
_atom_site_label
_atom_site_type_symbol
_atom_site_fract_x
_atom_site_fract_y
_atom_site_fract_z
N1 N 0.1873(2) 0.53887(17) 0.47294(10)
N2 N 0.3494(2) 0.72310(19) 0.65665(10)
O1 O 0.4046(2) 0.56584(18) 0.21227(9)
O2 O 0.3870(3) 0.6925(2) 0.77635(10)
C1 C 0.3650(3) 0.8202(2) 0.34194(12)
H1 H 0.4030 0.8862 0.3138
C2 C 0.3806(3) 0.5451(2) 0.57060(12)
H2 H 0.4575 0.5830 0.5388
C3 C 0.3529(3) 0.7000(2) 0.31183(12)
C4 C 0.4064(3) 0.5928(2) 0.64686(13)
H3 H 0.3553 0.5368 0.6807
H4 H 0.5143 0.5907 0.6576
C5 C 0.2234(2) 0.5889(2) 0.54551(12)
H5 H 0.1453 0.5635 0.5805
C6 C 0.3326(3) 0.9810(2) 0.43982(13)
H6 H 0.4039 0.9857 0.4791
H7 H 0.2345 1.0090 0.4561
H8 H 0.3665 1.0345 0.4009
C7 C 0.2707(2) 0.7446(2) 0.45543(12)
C8 C 0.2228(2) 0.7340(2) 0.53512(12)
H9 H 0.1181 0.7648 0.5399
C9 C 0.2521(2) 0.6239(2) 0.42333(12)
C10 C 0.2921(3) 0.5999(2) 0.35199(12)
H10 H 0.2789 0.5199 0.3316
C11 C 0.4110(3) 0.6730(2) 0.23745(13)
C12 C 0.3941(3) 0.4005(2) 0.56605(13)
H11 H 0.4956 0.3745 0.5804
H12 H 0.3220 0.3614 0.5990
C13 C 0.2067(3) 0.4016(2) 0.46393(14)
H13 H 0.1932 0.3800 0.4133
H14 H 0.1287 0.3578 0.4914
C14 C 0.3216(2) 0.8455(2) 0.41353(12)
C15 C 0.3624(3) 0.3560(2) 0.48887(13)
H15 H 0.4400 0.3890 0.4567
H16 H 0.3661 0.2640 0.4869
C16 C 0.3236(3) 0.8036(2) 0.59177(12)
H17 H 0.4225 0.8214 0.5695
C17 C 0.2540(3) 0.9288(2) 0.61567(14)
H18 H 0.2492 0.9865 0.5748
H19 H 0.1512 0.9144 0.6328
C18 C 0.3581(3) 0.7658(3) 0.72603(14)
C19 C 0.3478(3) 0.9883(3) 0.67560(17)
H20 H 0.4535 0.9942 0.6611
H21 H 0.3108 1.0731 0.6862
C20 C 0.4822(4) 0.7770(3) 0.19347(16)
H22 H 0.5621 0.8163 0.2209
H23 H 0.4066 0.8394 0.1816
H24 H 0.5236 0.7420 0.1497
C21 C 0.3326(4) 0.9045(3) 0.74130(17)
H25 H 0.4053 0.9321 0.7775
H26 H 0.2316 0.9153 0.7615
loop_
_geom_bond_atom_site_label_1
_geom_bond_atom_site_label_2
_geom_bond_site_symmetry_1
_geom_bond_site_symmetry_2
N1 C5 1_555 1_555
N2 C4 1_555 1_555
O1 C11 1_555 1_555
O2 C18 1_555 1_555
C1 H1 1_555 1_555
C2 H2 1_555 1_555
C3 C1 1_555 1_555
C4 C2 1_555 1_555
H3 C4 1_555 1_555
H4 C4 1_555 1_555
C5 C2 1_555 1_555
H5 C5 1_555 1_555
C6 H6 1_555 1_555
H7 C6 1_555 1_555
H8 C6 1_555 1_555
C7 C8 1_555 1_555
C8 C5 1_555 1_555
H9 C8 1_555 1_555
C9 N1 1_555 1_555
C10 C3 1_555 1_555
H10 C10 1_555 1_555
C11 C3 1_555 1_555
C12 C2 1_555 1_555
H11 C12 1_555 1_555
H12 C12 1_555 1_555
C13 N1 1_555 1_555
H13 C13 1_555 1_555
H14 C13 1_555 1_555
C14 C1 1_555 1_555
C15 C12 1_555 1_555
H15 C15 1_555 1_555
H16 C15 1_555 1_555
C16 N2 1_555 1_555
H17 C16 1_555 1_555
C17 C16 1_555 1_555
H18 C17 1_555 1_555
H19 C17 1_555 1_555
C18 N2 1_555 1_555
C19 C17 1_555 1_555
H20 C19 1_555 1_555
H21 C19 1_555 1_555
C20 C11 1_555 1_555
H22 C20 1_555 1_555
H23 C20 1_555 1_555
H24 C20 1_555 1_555
C21 C18 1_555 1_555
H25 C21 1_555 1_555
H26 C21 1_555 1_555
C6 C14 1_555 1_555
C7 C9 1_555 1_555
C7 C14 1_555 1_555
C8 C16 1_555 1_555
C9 C10 1_555 1_555
C13 C15 1_555 1_555
C19 C21 1_555 1_555

#END
