
#######################################################################
#
#                 Cambridge Crystallographic Data Centre
#                                CCDC 
#
#######################################################################
#
# If this CIF has been generated from an entry in the Cambridge 
# Structural Database, then it will include bibliographic, chemical, 
# crystal, experimental, refinement or atomic coordinate data resulting 
# from the CCDC's data processing and validation procedures.
#
#######################################################################

data_ZAQJUZ
_chemical_name_common            (-)-paeoveitol
_chemical_formula_moiety         'C19 H20 O5'
_chemical_name_systematic        
5a-(hydroxymethyl)-3,8,11-trimethyl-10a,11-dihydro-5aH-[1]benzofuro[3,2-b]chromene-2,7-diol
_symmetry_cell_setting           monoclinic
_symmetry_space_group_name_H-M   'C 2'
_symmetry_Int_Tables_number      5
_space_group_name_Hall           'C 2y'
loop_
_symmetry_equiv_pos_site_id
_symmetry_equiv_pos_as_xyz
1 x,y,z
2 -x,y,-z
3 1/2+x,1/2+y,z
4 1/2-x,1/2+y,-z
_cell_length_a                   18.9838(7)
_cell_length_b                   9.0762(3)
_cell_length_c                   9.3006(3)
_cell_angle_alpha                90
_cell_angle_beta                 97.114(2)
_cell_angle_gamma                90
_cell_volume                     1590.16
_exptl_crystal_colour            brown
_exptl_crystal_description       plate
_cell_formula_units_Z            4
_exptl_crystal_recrystallization_method methanol
loop_
_atom_site_label
_atom_site_type_symbol
_atom_site_fract_x
_atom_site_fract_y
_atom_site_fract_z
O1 O 0.5059(3) 0.8041(6) 0.2899(6)
H1 H 0.5119 0.8165 0.3801
O2 O 0.3745(2) -0.0364(6) 0.6224(5)
H2 H 0.3794 0.0083 0.7020
O3 O 0.2946(3) 0.3378(6) 0.1672(4)
O4 O 0.4076(2) 0.0730(6) -0.1086(5)
H3 H 0.3865 0.0156 -0.1705
O5 O 0.4626(3) 0.2185(5) 0.1483(5)
C1 C 0.4981(4) 0.6565(8) 0.2596(7)
C2 C 0.4430(4) 0.6187(9) 0.1533(7)
H4 H 0.4137 0.6935 0.1060
C3 C 0.4304(4) 0.4716(8) 0.1160(6)
C4 C 0.3369(3) 0.2893(8) 0.0574(6)
H5 H 0.3046 0.2435 -0.0236
C5 C 0.3884(4) 0.1688(8) 0.1274(6)
C6 C 0.3617(4) 0.1461(8) 0.2731(6)
C7 C 0.3848(4) 0.0507(8) 0.3850(6)
H6 H 0.4210 -0.0196 0.3759
C8 C 0.3526(3) 0.0618(8) 0.5121(6)
C9 C 0.2663(4) 0.1781(8) 0.6639(7)
H7 H 0.3021 0.2126 0.7417
H8 H 0.2486 0.0814 0.6895
H9 H 0.2268 0.2484 0.6508
C10 C 0.2992(4) 0.1659(8) 0.5253(6)
C11 C 0.3090(4) 0.2481(7) 0.2860(6)
C12 C 0.3915(4) 0.0333(8) 0.0317(7)
H10 H 0.4282 -0.0352 0.0774
H11 H 0.3452 -0.0182 0.0228
C13 C 0.4729(4) 0.3653(8) 0.1914(6)
C14 C 0.5257(4) 0.4007(8) 0.3002(6)
H12 H 0.5523 0.3247 0.3521
C15 C 0.5409(4) 0.5500(8) 0.3353(7)
C16 C 0.6007(4) 0.5892(9) 0.4514(8)
H13 H 0.6420 0.6216 0.4061
H14 H 0.6135 0.5026 0.5120
H15 H 0.5855 0.6689 0.5117
C17 C 0.2776(4) 0.2613(8) 0.4101(7)
H16 H 0.2419 0.3335 0.4177
C18 C 0.3739(3) 0.4201(8) -0.0022(6)
H17 H 0.3988 0.3830 -0.0838
C19 C 0.3218(4) 0.5376(8) -0.0638(7)
H18 H 0.2976 0.5788 0.0141
H19 H 0.2868 0.4937 -0.1377
H20 H 0.3475 0.6160 -0.1076
loop_
_geom_bond_atom_site_label_1
_geom_bond_atom_site_label_2
_geom_bond_site_symmetry_1
_geom_bond_site_symmetry_2
O1 H1 1_555 1_555
O2 H2 1_555 1_555
O3 C4 1_555 1_555
O4 H3 1_555 1_555
O5 C5 1_555 1_555
C1 O1 1_555 1_555
C2 C1 1_555 1_555
H4 C2 1_555 1_555
C3 C2 1_555 1_555
C4 H5 1_555 1_555
C5 C4 1_555 1_555
C6 C5 1_555 1_555
C7 C6 1_555 1_555
H6 C7 1_555 1_555
C8 O2 1_555 1_555
C9 H7 1_555 1_555
H8 C9 1_555 1_555
H9 C9 1_555 1_555
C10 C8 1_555 1_555
C11 O3 1_555 1_555
C12 O4 1_555 1_555
H10 C12 1_555 1_555
H11 C12 1_555 1_555
C13 O5 1_555 1_555
C14 C13 1_555 1_555
H12 C14 1_555 1_555
C15 C1 1_555 1_555
C16 C15 1_555 1_555
H13 C16 1_555 1_555
H14 C16 1_555 1_555
H15 C16 1_555 1_555
C17 C10 1_555 1_555
H16 C17 1_555 1_555
C18 C3 1_555 1_555
H17 C18 1_555 1_555
C19 C18 1_555 1_555
H18 C19 1_555 1_555
H19 C19 1_555 1_555
H20 C19 1_555 1_555
C3 C13 1_555 1_555
C4 C18 1_555 1_555
C5 C12 1_555 1_555
C6 C11 1_555 1_555
C7 C8 1_555 1_555
C9 C10 1_555 1_555
C11 C17 1_555 1_555
C14 C15 1_555 1_555

#END
