
#######################################################################
#
#                 Cambridge Crystallographic Data Centre
#                                CCDC 
#
#######################################################################
#
# If this CIF has been generated from an entry in the Cambridge 
# Structural Database, then it will include bibliographic, chemical, 
# crystal, experimental, refinement or atomic coordinate data resulting 
# from the CCDC's data processing and validation procedures.
#
#######################################################################

data_ZAQMIQ
_chemical_formula_moiety         'C16 H15 N1 O6 S1'
_chemical_name_systematic        
'methyl 3-(3-methoxy-2-((pyridin-2-ylsulfonyl)oxy)phenyl)acrylate'
_symmetry_cell_setting           monoclinic
_symmetry_space_group_name_H-M   'P 21/c'
_symmetry_Int_Tables_number      14
_space_group_name_Hall           '-P 2ybc'
loop_
_symmetry_equiv_pos_site_id
_symmetry_equiv_pos_as_xyz
1 x,y,z
2 -x,1/2+y,1/2-z
3 -x,-y,-z
4 x,1/2-y,1/2+z
_cell_length_a                   7.354(2)
_cell_length_b                   13.054(4)
_cell_length_c                   17.139(5)
_cell_angle_alpha                90
_cell_angle_beta                 93.762(4)
_cell_angle_gamma                90
_cell_volume                     1641.78
_exptl_crystal_colour            colorless
_exptl_crystal_description       block
_cell_formula_units_Z            4
loop_
_atom_site_label
_atom_site_type_symbol
_atom_site_fract_x
_atom_site_fract_y
_atom_site_fract_z
S1 S 0.51063(7) 0.29223(4) 0.40615(2)
N1 N 0.7852(2) 0.25718(14) 0.50824(9)
O1 O 0.4560(2) 0.37531(12) 0.35603(8)
O2 O 0.5558(2) 0.19591(11) 0.37402(8)
O3 O 0.33970(17) 0.27952(10) 0.45916(7)
O4 O 0.4352(2) 0.32995(11) 0.60628(7)
O5 O 0.0808(3) 0.03187(15) 0.25880(10)
O6 O 0.1212(2) -0.13361(14) 0.28826(9)
C1 C 0.9107(3) 0.28640(19) 0.56396(13)
H1 H 0.9834 0.2362 0.5887
C2 C 0.9379(3) 0.3865(2) 0.58655(13)
H2 H 1.0241 0.4027 0.6268
C3 C 0.8363(3) 0.4629(2) 0.54900(14)
H3 H 0.8540 0.5312 0.5630
C4 C 0.7080(3) 0.43608(17) 0.49029(12)
H4 H 0.6381 0.4852 0.4628
C5 C 0.6880(2) 0.33303(15) 0.47430(10)
C6 C 0.3406(2) 0.20082(14) 0.51666(10)
C7 C 0.3881(2) 0.22984(16) 0.59418(10)
C8 C 0.3815(3) 0.15557(17) 0.65206(11)
H5 H 0.4132 0.1721 0.7040
C9 C 0.3274(3) 0.05708(18) 0.63211(12)
H6 H 0.3247 0.0078 0.6712
C10 C 0.2777(3) 0.02983(17) 0.55632(12)
H7 H 0.2415 -0.0370 0.5448
C11 C 0.2816(2) 0.10292(15) 0.49610(10)
C12 C 0.2185(3) 0.07730(16) 0.41500(11)
H8 H 0.1874 0.1316 0.3816
C13 C 0.2022(3) -0.01537(17) 0.38575(12)
H9 H 0.2374 -0.0712 0.4169
C14 C 0.1295(3) -0.03313(18) 0.30472(12)
C15 C 0.0426(4) -0.1627(2) 0.21235(15)
H10 H -0.0808 -0.1384 0.2062
H11 H 0.0438 -0.2360 0.2077
H12 H 0.1123 -0.1331 0.1726
C16 C 0.4929(4) 0.3600(2) 0.68484(11)
H13 H 0.3955 0.3487 0.7185
H14 H 0.5249 0.4313 0.6856
H15 H 0.5969 0.3200 0.7029
loop_
_geom_bond_atom_site_label_1
_geom_bond_atom_site_label_2
_geom_bond_site_symmetry_1
_geom_bond_site_symmetry_2
S1 O1 1_555 1_555
N1 C1 1_555 1_555
O2 S1 1_555 1_555
O3 S1 1_555 1_555
O4 C7 1_555 1_555
O5 C14 1_555 1_555
O6 C14 1_555 1_555
C1 H1 1_555 1_555
C2 C1 1_555 1_555
H2 C2 1_555 1_555
C3 C2 1_555 1_555
H3 C3 1_555 1_555
C4 C3 1_555 1_555
H4 C4 1_555 1_555
C5 S1 1_555 1_555
C6 O3 1_555 1_555
C7 C6 1_555 1_555
C8 C7 1_555 1_555
H5 C8 1_555 1_555
C9 C8 1_555 1_555
H6 C9 1_555 1_555
C10 C9 1_555 1_555
H7 C10 1_555 1_555
C11 C6 1_555 1_555
C12 C11 1_555 1_555
H8 C12 1_555 1_555
C13 C12 1_555 1_555
H9 C13 1_555 1_555
C14 C13 1_555 1_555
C15 O6 1_555 1_555
H10 C15 1_555 1_555
H11 C15 1_555 1_555
H12 C15 1_555 1_555
C16 O4 1_555 1_555
H13 C16 1_555 1_555
H14 C16 1_555 1_555
H15 C16 1_555 1_555
N1 C5 1_555 1_555
C4 C5 1_555 1_555
C10 C11 1_555 1_555

#END
