
#######################################################################
#
#                 Cambridge Crystallographic Data Centre
#                                CCDC 
#
#######################################################################
#
# If this CIF has been generated from an entry in the Cambridge 
# Structural Database, then it will include bibliographic, chemical, 
# crystal, experimental, refinement or atomic coordinate data resulting 
# from the CCDC's data processing and validation procedures.
#
#######################################################################

data_ZARDED
_chemical_formula_moiety         'C14 H11 Br1 N2 O1 S1'
_chemical_name_systematic        
2-(((3-Bromophenyl)amino)methyl)-1,2-benzothiazol-3(2H)-one
_symmetry_cell_setting           monoclinic
_symmetry_space_group_name_H-M   'P 21/c'
_symmetry_Int_Tables_number      14
_space_group_name_Hall           '-P 2ybc'
loop_
_symmetry_equiv_pos_site_id
_symmetry_equiv_pos_as_xyz
1 x,y,z
2 -x,1/2+y,1/2-z
3 -x,-y,-z
4 x,1/2-y,1/2+z
_cell_length_a                   7.351(2)
_cell_length_b                   22.781(7)
_cell_length_c                   8.559(3)
_cell_angle_alpha                90
_cell_angle_beta                 109.580(4)
_cell_angle_gamma                90
_cell_volume                     1350.43
_exptl_crystal_colour            colorless
_exptl_crystal_description       block
_cell_formula_units_Z            4
_exptl_crystal_recrystallization_method chloroform/methanol
loop_
_atom_site_label
_atom_site_type_symbol
_atom_site_fract_x
_atom_site_fract_y
_atom_site_fract_z
Br1 Br 0.37553(3) 0.693276(11) 0.83530(3)
O1 O 1.1959(2) 0.47887(6) 1.16801(16)
S1 S 1.30876(8) 0.60263(2) 1.48237(6)
N1 N 1.2660(2) 0.56804(7) 1.29651(19)
C1 C 0.6410(3) 0.69583(9) 0.9710(3)
C2 C 1.2302(3) 0.50892(9) 1.2939(2)
N2 N 1.0771(2) 0.60956(8) 1.0275(2)
C3 C 1.2107(3) 0.43397(10) 1.5099(3)
H1 H 1.1821 0.4025 1.4327
C4 C 1.2648(3) 0.47107(10) 1.7852(3)
H2 H 1.2716 0.4638 1.8963
C5 C 1.2822(3) 0.53648(9) 1.5741(2)
C6 C 0.9559(3) 0.65290(9) 1.0506(2)
C7 C 1.0203(3) 0.69745(9) 1.1676(3)
H3 H 1.1519 0.6985 1.2368
C8 C 0.7614(3) 0.65249(9) 0.9498(2)
H4 H 0.7134 0.6229 0.8682
C9 C 1.2401(3) 0.49047(9) 1.4604(2)
C10 C 1.2648(3) 0.59860(9) 1.1440(2)
H5 H 1.3328 0.6366 1.1755
H6 H 1.3384 0.5747 1.0891
C11 C 1.2955(3) 0.52715(10) 1.7396(3)
H7 H 1.3246 0.5584 1.8174
C12 C 1.2239(3) 0.42447(10) 1.6723(3)
H8 H 1.2051 0.3861 1.7078
C13 C 0.7015(3) 0.74034(11) 1.0860(3)
H9 H 0.6149 0.7697 1.0973
C14 C 0.8935(4) 0.74030(11) 1.1840(3)
H10 H 0.9402 0.7703 1.2645
H11 H 1.017(3) 0.5816(10) 0.975(3)
loop_
_geom_bond_atom_site_label_1
_geom_bond_atom_site_label_2
_geom_bond_site_symmetry_1
_geom_bond_site_symmetry_2
Br1 C1 1_555 1_555
O1 C2 1_555 1_555
S1 N1 1_555 1_555
N1 C2 1_555 1_555
C1 C8 1_555 1_555
C2 C9 1_555 1_555
N2 C6 1_555 1_555
C3 H1 1_555 1_555
C4 H2 1_555 1_555
C5 S1 1_555 1_555
C6 C7 1_555 1_555
C7 H3 1_555 1_555
C8 C6 1_555 1_555
H4 C8 1_555 1_555
C9 C3 1_555 1_555
C10 N1 1_555 1_555
H5 C10 1_555 1_555
H6 C10 1_555 1_555
C11 C4 1_555 1_555
H7 C11 1_555 1_555
C12 C3 1_555 1_555
H8 C12 1_555 1_555
C13 C1 1_555 1_555
H9 C13 1_555 1_555
C14 C7 1_555 1_555
H10 C14 1_555 1_555
H11 N2 1_555 1_555
N2 C10 1_555 1_555
C4 C12 1_555 1_555
C5 C9 1_555 1_555
C5 C11 1_555 1_555
C13 C14 1_555 1_555

#END
