
#######################################################################
#
#                 Cambridge Crystallographic Data Centre
#                                CCDC 
#
#######################################################################
#
# If this CIF has been generated from an entry in the Cambridge 
# Structural Database, then it will include bibliographic, chemical, 
# crystal, experimental, refinement or atomic coordinate data resulting 
# from the CCDC's data processing and validation procedures.
#
#######################################################################

data_ZARFEF
_chemical_formula_moiety         'C24 H24 N2 O4,C2 H3 N1'
_chemical_name_systematic        
'2-Ethoxy-6-[1-(3-ethoxy-2-hydroxybenzyl)-2,3-dihydro-1H-benzimidazol-2-yl]phenol acetonitrile solvate'
_symmetry_cell_setting           monoclinic
_symmetry_space_group_name_H-M   'P 21/c'
_symmetry_Int_Tables_number      14
_space_group_name_Hall           '-P 2ybc'
loop_
_symmetry_equiv_pos_site_id
_symmetry_equiv_pos_as_xyz
1 x,y,z
2 -x,1/2+y,1/2-z
3 -x,-y,-z
4 x,1/2-y,1/2+z
_cell_length_a                   7.6177(3)
_cell_length_b                   19.2728(8)
_cell_length_c                   16.3480(7)
_cell_angle_alpha                90
_cell_angle_beta                 99.9910(10)
_cell_angle_gamma                90
_cell_volume                     2363.72
_exptl_crystal_colour            orange
_exptl_crystal_description       block
_cell_formula_units_Z            4
loop_
_atom_site_label
_atom_site_type_symbol
_atom_site_fract_x
_atom_site_fract_y
_atom_site_fract_z
O1 O 0.15735(18) -0.00918(6) 0.26012(8)
H1 H 0.168(3) 0.0028(13) 0.2049(17)
O2 O 0.19475(18) -0.02073(7) 0.41963(7)
O3 O -0.00142(17) 0.37008(7) 0.19346(8)
H2 H -0.037(3) 0.4162(14) 0.1998(15)
O4 O 0.22786(17) 0.47927(7) 0.21034(8)
N1 N 0.2178(2) 0.06036(8) 0.13143(9)
N2 N 0.1411(2) 0.17258(8) 0.12832(9)
C1 C 0.1805(3) 0.08206(10) 0.04922(11)
C2 C 0.1843(3) 0.04599(11) -0.02431(12)
H3 H 0.2157 -0.0017 -0.0237
C3 C 0.1412(3) 0.08162(12) -0.09760(12)
H4 H 0.1431 0.0580 -0.1485
C4 C 0.0946(3) 0.15150(12) -0.09935(13)
H5 H 0.0658 0.1744 -0.1514
C5 C 0.0892(3) 0.18836(11) -0.02765(12)
H6 H 0.0574 0.2361 -0.0287
C6 C 0.1330(2) 0.15182(10) 0.04647(11)
C7 C 0.1956(2) 0.11603(10) 0.17655(11)
C8 C 0.2259(2) 0.11358(10) 0.26759(11)
C9 C 0.2022(2) 0.04994(9) 0.30469(11)
C10 C 0.2278(2) 0.04394(10) 0.39178(11)
C11 C 0.2845(3) 0.10069(10) 0.44051(12)
H7 H 0.3030 0.0969 0.4993
C12 C 0.3147(3) 0.16344(11) 0.40360(12)
H8 H 0.3562 0.2021 0.4375
C13 C 0.2854(3) 0.17026(10) 0.31876(12)
H9 H 0.3055 0.2137 0.2945
C14 C 0.2317(3) -0.03357(11) 0.50729(11)
H10 H 0.1566 -0.0036 0.5363
H11 H 0.3585 -0.0238 0.5298
C15 C 0.1904(3) -0.10855(11) 0.51931(13)
H12 H 0.0655 -0.1177 0.4955
H13 H 0.2110 -0.1193 0.5788
H14 H 0.2678 -0.1376 0.4915
C16 C 0.0792(2) 0.23988(9) 0.15229(11)
H15 H 0.0403 0.2352 0.2068
H16 H -0.0259 0.2540 0.1111
C17 C 0.2181(2) 0.29633(10) 0.15836(11)
C18 C 0.1690(2) 0.36206(9) 0.17971(10)
C19 C 0.2916(3) 0.41653(10) 0.18826(11)
C20 C 0.4630(3) 0.40455(11) 0.17447(11)
H17 H 0.5469 0.4414 0.1797
C21 C 0.5126(3) 0.33855(11) 0.15293(12)
H18 H 0.6306 0.3304 0.1438
C22 C 0.3911(3) 0.28487(11) 0.14468(11)
H19 H 0.4256 0.2399 0.1296
C23 C 0.3560(3) 0.53233(11) 0.23731(13)
H20 H 0.4117 0.5482 0.1902
H21 H 0.4507 0.5141 0.2812
C24 C 0.2611(3) 0.59180(12) 0.27053(15)
H22 H 0.1700 0.6104 0.2262
H23 H 0.3472 0.6283 0.2907
H24 H 0.2043 0.5754 0.3163
N3 N 0.6545(4) 0.31138(16) 0.53251(17)
C25 C 0.6024(4) 0.3616(2) 0.38529(19)
H25 H 0.6354 0.4108 0.3874
H26 H 0.4764 0.3568 0.3605
H27 H 0.6758 0.3363 0.3516
C26 C 0.6315(4) 0.33353(16) 0.46845(19)
loop_
_geom_bond_atom_site_label_1
_geom_bond_atom_site_label_2
_geom_bond_site_symmetry_1
_geom_bond_site_symmetry_2
O1 H1 1_555 1_555
O2 C10 1_555 1_555
O3 H2 1_555 1_555
O4 C19 1_555 1_555
N1 C1 1_555 1_555
N2 C6 1_555 1_555
C1 C2 1_555 1_555
C2 H3 1_555 1_555
C3 C2 1_555 1_555
H4 C3 1_555 1_555
C4 C3 1_555 1_555
H5 C4 1_555 1_555
C5 C4 1_555 1_555
H6 C5 1_555 1_555
C6 C1 1_555 1_555
C7 N1 1_555 1_555
C8 C7 1_555 1_555
C9 O1 1_555 1_555
C10 C9 1_555 1_555
C11 C10 1_555 1_555
H7 C11 1_555 1_555
C12 C11 1_555 1_555
H8 C12 1_555 1_555
C13 C8 1_555 1_555
H9 C13 1_555 1_555
C14 O2 1_555 1_555
H10 C14 1_555 1_555
H11 C14 1_555 1_555
C15 C14 1_555 1_555
H12 C15 1_555 1_555
H13 C15 1_555 1_555
H14 C15 1_555 1_555
C16 N2 1_555 1_555
H15 C16 1_555 1_555
H16 C16 1_555 1_555
C17 C16 1_555 1_555
C18 O3 1_555 1_555
C19 C18 1_555 1_555
C20 C19 1_555 1_555
H17 C20 1_555 1_555
C21 C20 1_555 1_555
H18 C21 1_555 1_555
C22 C17 1_555 1_555
H19 C22 1_555 1_555
C23 O4 1_555 1_555
H20 C23 1_555 1_555
H21 C23 1_555 1_555
C24 C23 1_555 1_555
H22 C24 1_555 1_555
H23 C24 1_555 1_555
H24 C24 1_555 1_555
N3 C26 1_555 1_555
C25 H25 1_555 1_555
H26 C25 1_555 1_555
H27 C25 1_555 1_555
C26 C25 1_555 1_555
N2 C7 1_555 1_555
C5 C6 1_555 1_555
C8 C9 1_555 1_555
C12 C13 1_555 1_555
C17 C18 1_555 1_555
C21 C22 1_555 1_555

#END
