
#######################################################################
#
#                 Cambridge Crystallographic Data Centre
#                                CCDC 
#
#######################################################################
#
# If this CIF has been generated from an entry in the Cambridge 
# Structural Database, then it will include bibliographic, chemical, 
# crystal, experimental, refinement or atomic coordinate data resulting 
# from the CCDC's data processing and validation procedures.
#
#######################################################################

data_ZARJAG
_chemical_formula_moiety         'C26 H12 N8 O20,2(C4 H8 O2)'
_chemical_name_systematic        
'5,17-dimethyl-4,6,10,12,16,18,22,24-octanitro-2,8,14,20-tetraoxapentacyclo[19.3.1.1^3,7^.1^9,13^.1^15,19^]octacosa-1(25),3(28),4,6,9(27),10,12,15(26),16,18,21,23-dodecaene ethyl acetate unknown solvate'
_symmetry_cell_setting           triclinic
_symmetry_space_group_name_H-M   'P -1'
_symmetry_Int_Tables_number      2
_space_group_name_Hall           '-P 1'
loop_
_symmetry_equiv_pos_site_id
_symmetry_equiv_pos_as_xyz
1 x,y,z
2 -x,-y,-z
_cell_length_a                   11.2554(6)
_cell_length_b                   19.5586(9)
_cell_length_c                   20.6007(10)
_cell_angle_alpha                99.125(2)
_cell_angle_beta                 98.574(2)
_cell_angle_gamma                95.584(2)
_cell_volume                     4393.49
_exptl_crystal_description       block
_cell_formula_units_Z            4
loop_
_atom_site_label
_atom_site_type_symbol
_atom_site_fract_x
_atom_site_fract_y
_atom_site_fract_z
C1 C 0.7914(3) 0.08055(15) 0.03184(14)
C2 C 0.7199(3) 0.12600(15) 0.06054(15)
H1 H 0.7481 0.1548 0.1028
C3 C 0.6065(3) 0.12826(15) 0.02597(15)
C4 C 0.5626(3) 0.08512(15) -0.03473(15)
C5 C 0.6314(3) 0.03741(15) -0.06412(14)
C6 C 0.7464(3) 0.03725(15) -0.02901(14)
C7 C 0.5657(3) 0.24040(15) 0.07036(15)
C8 C 0.6473(3) 0.27324(16) 0.03806(15)
H2 H 0.6811 0.2471 0.0040
C9 C 0.6792(3) 0.34404(16) 0.05577(15)
C10 C 0.6281(3) 0.38224(16) 0.10383(16)
C11 C 0.5436(3) 0.35077(16) 0.13472(15)
H3 H 0.5059 0.3776 0.1665
C12 C 0.5141(3) 0.27889(16) 0.11855(15)
C13 C 0.5864(3) -0.01026(17) -0.13023(15)
H4 H 0.6536 -0.0156 -0.1552
H5 H 0.5226 0.0099 -0.1560
H6 H 0.5539 -0.0560 -0.1225
C14 C 0.8733(3) 0.36528(15) 0.02607(15)
C15 C 0.9310(3) 0.33729(16) 0.07716(15)
H7 H 0.8894 0.3245 0.1111
C16 C 1.0496(3) 0.32828(15) 0.07788(14)
C17 C 1.1119(3) 0.34897(16) 0.02939(15)
C18 C 1.0564(3) 0.37806(17) -0.02258(15)
C19 C 0.9357(3) 0.38488(16) -0.02243(14)
C20 C 1.0746(3) 0.24029(15) 0.14315(14)
C21 C 1.0040(3) 0.18910(16) 0.09493(14)
H8 H 0.9804 0.1979 0.0511
C22 C 0.9682(3) 0.12541(15) 0.11084(14)
C23 C 1.0061(3) 0.11136(14) 0.17398(14)
C24 C 1.0806(3) 0.16090(15) 0.22136(14)
H9 H 1.1099 0.1506 0.2640
C25 C 1.1122(3) 0.22564(15) 0.20628(13)
C26 C 1.1234(4) 0.3996(2) -0.07568(19)
H10 H 1.0651 0.4038 -0.1148
H11 H 1.1758 0.3644 -0.0885
H12 H 1.1730 0.4447 -0.0583
N1 N 0.4420(3) 0.09236(15) -0.06917(14)
N2 N 0.8260(3) -0.00991(14) -0.05771(13)
N3 N 0.6662(4) 0.45732(16) 0.12416(15)
N4 N 0.9659(3) 0.04552(13) 0.19402(13)
N5 N 1.1841(3) 0.27858(14) 0.25994(12)
O1 O 0.5275(2) 0.17003(11) 0.05373(11)
O2 O 0.7548(2) 0.37874(11) 0.02066(10)
O3 O 0.4271(3) 0.14880(14) -0.08443(14)
O4 O 0.3653(2) 0.04197(14) -0.08003(14)
O5 O 0.8142(3) -0.06965(13) -0.04962(15)
O6 O 0.8971(3) 0.01351(14) -0.08948(14)
O7 O 0.5867(3) 0.49521(14) 0.12712(17)
O8 O 0.7744(3) 0.47608(14) 0.13932(14)
O9 O 1.1161(2) 0.30367(11) 0.12957(10)
O10 O 0.90523(19) 0.07228(10) 0.06100(10)
O11 O 1.0360(3) 0.02317(12) 0.23387(12)
O12 O 0.8629(2) 0.01824(13) 0.17090(12)
O13 O 1.2560(2) 0.25788(11) 0.30086(10)
O14 O 1.1656(2) 0.33907(12) 0.26201(10)
N6 N 0.4263(4) 0.2486(2) 0.1554(2)
O15 O 0.3599(4) 0.28756(17) 0.1794(2)
O16 O 0.4283(5) 0.18832(16) 0.1621(3)
N7 N 1.2406(4) 0.3386(3) 0.0340(2)
O17 O 1.2656(3) 0.2786(3) 0.0295(4)
O18 O 1.3148(3) 0.3903(3) 0.0418(5)
N8 N 0.8695(5) 0.4152(2) -0.0758(2)
O19 O 0.7956(8) 0.3764(2) -0.1181(3)
O20 O 0.8930(9) 0.47773(18) -0.0741(3)
C27 C 0.4943(3) 0.42183(15) 0.62701(14)
C28 C 0.5615(3) 0.37302(15) 0.59935(15)
H13 H 0.5317 0.3441 0.5573
C29 C 0.6722(3) 0.36752(17) 0.63422(17)
C30 C 0.7182(3) 0.41038(17) 0.69480(16)
C31 C 0.6551(3) 0.46170(16) 0.72258(15)
C32 C 0.5423(3) 0.46514(15) 0.68673(15)
C33 C 0.7130(3) 0.25577(17) 0.58451(16)
C34 C 0.6285(3) 0.21965(17) 0.61273(16)
H14 H 0.5891 0.2439 0.6454
C35 C 0.6011(3) 0.14836(17) 0.59347(18)
C36 C 0.6613(4) 0.11314(18) 0.54727(19)
C37 C 0.7430(3) 0.14869(19) 0.51759(18)
H15 H 0.7823 0.1243 0.4849
C38 C 0.7673(3) 0.21971(18) 0.53558(16)
C39 C 0.7011(4) 0.51038(18) 0.78888(16)
H16 H 0.7368 0.5553 0.7806
H17 H 0.7626 0.4895 0.8155
H18 H 0.6335 0.5177 0.8131
C40 C 0.4070(3) 0.13442(15) 0.62194(16)
C41 C 0.3504(3) 0.16395(15) 0.57081(16)
H19 H 0.3900 0.1721 0.5346
C42 C 0.2359(3) 0.18120(15) 0.57359(14)
C43 C 0.1762(3) 0.16814(15) 0.62541(15)
C44 C 0.2299(3) 0.13739(16) 0.67750(15)
C45 C 0.3456(3) 0.12148(15) 0.67307(15)
C46 C 0.2119(3) 0.27098(14) 0.50978(14)
C47 C 0.2832(3) 0.32036(15) 0.55902(14)
H20 H 0.3078 0.3095 0.6020
C48 C 0.3185(3) 0.38551(15) 0.54570(14)
C49 C 0.2810(3) 0.40216(15) 0.48338(14)
C50 C 0.2057(3) 0.35388(15) 0.43498(14)
H21 H 0.1772 0.3655 0.3928
C51 C 0.1724(3) 0.28894(15) 0.44824(14)
C52 C 0.1689(3) 0.1260(2) 0.73618(17)
H22 H 0.1147 0.0820 0.7246
H23 H 0.1220 0.1646 0.7474
H24 H 0.2305 0.1241 0.7746
N12 N 0.8364(3) 0.3990(2) 0.72956(17)
N13 N 0.4687(3) 0.51804(15) 0.71209(13)
N14 N 0.0541(3) 0.18869(17) 0.62566(13)
N15 N 0.4101(3) 0.09003(17) 0.72622(15)
N16 N 0.0965(3) 0.23889(14) 0.39354(12)
O27 O 0.7494(2) 0.32528(12) 0.60512(12)
O28 O 0.5183(2) 0.11173(12) 0.62238(13)
O29 O 0.8497(3) 0.33958(18) 0.73838(16)
O30 O 0.9138(3) 0.44905(19) 0.74791(18)
O31 O 0.5064(3) 0.57905(13) 0.71466(13)
O32 O 0.3744(3) 0.49879(15) 0.72908(16)
O33 O 0.1732(2) 0.20586(10) 0.52092(9)
O34 O 0.3856(2) 0.43570(10) 0.59581(10)
O35 O 0.0404(2) 0.24936(14) 0.62091(13)
O36 O -0.0264(2) 0.14500(16) 0.62971(16)
O37 O 0.4911(3) 0.12621(16) 0.76530(15)
O38 O 0.3776(3) 0.03021(15) 0.72833(16)
O39 O 0.1119(2) 0.17736(11) 0.38846(10)
O40 O 0.0254(2) 0.26240(12) 0.35454(10)
N17 N 0.3020(9) 0.4735(4) 0.4690(4)
O41 O 0.3214(7) 0.4730(4) 0.4095(3)
O42 O 0.3154(6) 0.5239(3) 0.5135(3)
N18 N 0.8536(8) 0.2572(5) 0.5017(5)
O43 O 0.9235(15) 0.2220(8) 0.4764(10)
O44 O 0.8500(8) 0.3187(3) 0.5002(4)
N19 N 0.6380(8) 0.0362(3) 0.5259(5)
O45 O 0.6294(8) 0.0024(3) 0.5711(5)
O46 O 0.6259(8) 0.0127(4) 0.4655(5)
C27A C 0.5057(3) 0.57817(15) 0.37299(14)
C28A C 0.4385(3) 0.62698(15) 0.40065(15)
H13A H 0.4683 0.6559 0.4427
C29A C 0.3278(3) 0.63248(17) 0.36578(17)
C30A C 0.2818(3) 0.58962(17) 0.30520(16)
C31A C 0.3449(3) 0.53830(16) 0.27742(15)
C32A C 0.4577(3) 0.53486(15) 0.31327(15)
C33A C 0.2870(3) 0.74423(17) 0.41549(16)
C34A C 0.3715(3) 0.78035(17) 0.38727(16)
H14A H 0.4109 0.7561 0.3546
C35A C 0.3989(3) 0.85164(17) 0.40653(18)
C36A C 0.3387(4) 0.88686(18) 0.45273(19)
C37A C 0.2570(3) 0.85131(19) 0.48241(18)
H15A H 0.2177 0.8757 0.5151
C38A C 0.2327(3) 0.78029(18) 0.46442(16)
C39A C 0.2989(4) 0.48962(18) 0.21112(16)
H16A H 0.2632 0.4447 0.2194
H17A H 0.2374 0.5105 0.1845
H18A H 0.3665 0.4823 0.1869
C40A C 0.5930(3) 0.86558(15) 0.37806(16)
C41A C 0.6496(3) 0.83605(15) 0.42919(16)
H19A H 0.6100 0.8279 0.4654
C42A C 0.7641(3) 0.81880(15) 0.42641(14)
C43A C 0.8238(3) 0.83186(15) 0.37459(15)
C44A C 0.7701(3) 0.86261(16) 0.32250(15)
C45A C 0.6544(3) 0.87852(15) 0.32693(15)
C46A C 0.7881(3) 0.72902(14) 0.49022(14)
C47A C 0.7168(3) 0.67964(15) 0.44098(14)
H20A H 0.6922 0.6905 0.3980
C48A C 0.6815(3) 0.61449(15) 0.45430(14)
C49A C 0.7190(3) 0.59784(15) 0.51662(14)
C50A C 0.7943(3) 0.64612(15) 0.56502(14)
H21A H 0.8228 0.6345 0.6072
C51A C 0.8276(3) 0.71106(15) 0.55176(14)
C52A C 0.8311(3) 0.8740(2) 0.26382(17)
H22A H 0.8853 0.9180 0.2754
H23A H 0.8780 0.8354 0.2526
H24A H 0.7695 0.8759 0.2254
N12A N 0.1636(3) 0.6010(2) 0.27044(17)
N13A N 0.5313(3) 0.48196(15) 0.28791(13)
N14A N 0.9459(3) 0.81131(17) 0.37434(13)
N15A N 0.5899(3) 0.90997(17) 0.27378(15)
N16A N 0.9035(3) 0.76111(14) 0.60646(12)
O27A O 0.2506(2) 0.67472(12) 0.39488(12)
O28A O 0.4817(2) 0.88827(12) 0.37762(13)
O29A O 0.1503(3) 0.66042(18) 0.26162(16)
O30A O 0.0862(3) 0.55095(19) 0.25209(18)
O31A O 0.4936(3) 0.42095(13) 0.28534(13)
O32A O 0.6256(3) 0.50121(15) 0.27092(16)
O33A O 0.8268(2) 0.79414(10) 0.47908(9)
O34A O 0.6144(2) 0.56430(10) 0.40419(10)
O35A O 0.9596(2) 0.75064(14) 0.37909(13)
O36A O 1.0264(2) 0.85500(16) 0.37029(16)
O37A O 0.5089(3) 0.87379(16) 0.23470(15)
O38A O 0.6224(3) 0.96979(15) 0.27167(16)
O39A O 0.8881(2) 0.82264(11) 0.61154(10)
O40A O 0.9746(2) 0.73760(12) 0.64546(10)
N17A N 0.6980(9) 0.5265(4) 0.5310(4)
O41A O 0.6786(7) 0.5270(4) 0.5905(3)
O42A O 0.6846(6) 0.4761(3) 0.4865(3)
N18A N 0.1464(8) 0.7428(5) 0.4983(5)
O43A O 0.0765(15) 0.7780(8) 0.5236(10)
O44A O 0.1500(8) 0.6813(3) 0.4998(4)
N19A N 0.3620(8) 0.9638(3) 0.4741(5)
O45A O 0.3706(8) 0.9976(3) 0.4289(5)
O46A O 0.3741(8) 0.9873(4) 0.5345(5)
C53 C 0.5564(4) 0.31845(19) 0.39521(19)
H25 H 0.6265 0.3089 0.3737
H26 H 0.5824 0.3536 0.4357
H27 H 0.4963 0.3359 0.3645
C54 C 0.5016(3) 0.25307(17) 0.41309(17)
O59 O 0.4833(2) 0.20048(11) 0.36211(11)
C55 C 0.4200(4) 0.13591(18) 0.37138(18)
H28 H 0.3445 0.1446 0.3888
H29 H 0.4714 0.1140 0.4035
C56 C 0.3912(4) 0.0889(2) 0.3042(2)
H30 H 0.3480 0.0443 0.3085
H31 H 0.3403 0.1111 0.2729
H32 H 0.4666 0.0806 0.2876
O60 O 0.4737(2) 0.24807(12) 0.46639(11)
C57 C 0.1869(13) 0.3732(10) 0.7434(7)
H33 H 0.1130 0.3488 0.7531
H34 H 0.1742 0.3794 0.6967
H35 H 0.2061 0.4189 0.7725
C58 C 0.2888(14) 0.3314(9) 0.7554(6)
O61 O 0.3033(9) 0.3190(6) 0.8173(5)
C59 C 0.4035(11) 0.2846(5) 0.8408(5)
H36 H 0.4204 0.2500 0.8037
H37 H 0.3827 0.2593 0.8763
C60 C 0.5128(11) 0.3353(8) 0.8672(9)
H38 H 0.5801 0.3106 0.8830
H39 H 0.5342 0.3599 0.8319
H40 H 0.4965 0.3691 0.9044
O62 O 0.3520(16) 0.3081(9) 0.7157(7)
C65 C 1.0972(7) 0.1528(7) 0.9181(4)
H49 H 1.1035 0.1071 0.8924
H50 H 1.1158 0.1514 0.9659
H51 H 1.1547 0.1882 0.9069
C66 C 0.9728(6) 0.1706(3) 0.9019(2)
O65 O 0.9348(4) 0.1593(3) 0.83786(16)
C67 C 0.8070(7) 0.1731(5) 0.8153(4)
H52 H 0.7502 0.1517 0.8410
H53 H 0.8015 0.2238 0.8207
C68 C 0.7803(7) 0.1404(5) 0.7447(3)
H54 H 0.6979 0.1469 0.7259
H55 H 0.8381 0.1619 0.7205
H56 H 0.7872 0.0904 0.7407
O66 O 0.9049(6) 0.1914(3) 0.9415(3)
C73 C 0.8257(16) 0.3591(5) 0.2793(6)
H65 H 0.8110 0.3625 0.3253
H66 H 0.9112 0.3747 0.2794
H67 H 0.7748 0.3885 0.2561
C74 C 0.7953(10) 0.2843(5) 0.2441(5)
O69 O 0.7576(5) 0.2457(3) 0.2866(2)
C75 C 0.7301(16) 0.1704(4) 0.2618(5)
H68 H 0.7812 0.1552 0.2284
H69 H 0.6439 0.1581 0.2410
C76 C 0.7577(8) 0.1369(3) 0.3225(4)
H70 H 0.7412 0.0861 0.3094
H71 H 0.8431 0.1500 0.3424
H72 H 0.7066 0.1529 0.3550
O70 O 0.8027(16) 0.2620(8) 0.1879(5)
N9? N 0.4211(18) 0.2456(10) 0.1502(9)
O21? O 0.401(2) 0.2758(12) 0.2029(9)
O22? O 0.3653(16) 0.1892(7) 0.1244(10)
N10? N 1.2417(14) 0.3425(12) 0.0328(12)
O23? O 1.269(2) 0.2903(15) 0.001(2)
O24? O 1.3119(15) 0.3900(16) 0.0682(16)
N11? N 0.869(2) 0.4142(9) -0.0760(8)
O25? O 0.847(3) 0.3789(11) -0.1319(7)
O26? O 0.838(3) 0.4722(10) -0.0622(9)
N20? N 0.3317(10) 0.4660(5) 0.4637(5)
O47? O 0.2632(8) 0.4891(4) 0.4205(4)
O48? O 0.4255(7) 0.4982(4) 0.4952(4)
N21? N 0.3180(17) 0.4699(7) 0.4651(7)
O49? O 0.2795(15) 0.4761(6) 0.4062(5)
O50? O 0.3801(13) 0.5165(5) 0.5078(5)
N22? N 0.8449(19) 0.2476(10) 0.4920(11)
O51? O 0.924(3) 0.2143(17) 0.475(2)
O52? O 0.8182(15) 0.3004(7) 0.4726(6)
N23? N 0.8576(19) 0.2617(10) 0.5077(10)
O53? O 0.885(2) 0.2360(13) 0.4551(9)
O54? O 0.9039(18) 0.3196(8) 0.5363(10)
N24? N 0.638(2) 0.0382(8) 0.5147(9)
O55? O 0.5840(14) -0.0045(7) 0.5417(8)
O56? O 0.6762(19) 0.0222(9) 0.4624(9)
N25? N 0.667(2) 0.0373(8) 0.5466(8)
O57? O 0.661(3) 0.0136(9) 0.5982(9)
O58? O 0.682(2) 0.0059(8) 0.4915(9)
C61? C 0.1887(17) 0.3567(12) 0.7349(10)
H41? H 0.1567 0.3672 0.7766
H42? H 0.1954 0.3988 0.7147
H43? H 0.1338 0.3196 0.7041
C62? C 0.3092(16) 0.3336(10) 0.7490(8)
O63? O 0.3461(12) 0.3363(7) 0.8145(6)
C63? C 0.4707(14) 0.3173(8) 0.8308(5)
H44? H 0.5302 0.3484 0.8147
H45? H 0.4749 0.2684 0.8106
C64? C 0.4939(14) 0.3269(8) 0.9064(6)
H46? H 0.5750 0.3153 0.9216
H47? H 0.4883 0.3755 0.9252
H48? H 0.4334 0.2960 0.9211
O64? O 0.377(2) 0.3160(13) 0.7094(9)
C69? C 1.119(3) 0.154(3) 0.9255(17)
H57? H 1.1597 0.1413 0.8873
H58? H 1.1735 0.1880 0.9598
H59? H 1.0974 0.1121 0.9440
C70? C 1.006(2) 0.1852(13) 0.9035(10)
O67? O 0.9933(17) 0.1884(10) 0.8397(8)
C71? C 0.881(2) 0.2083(12) 0.8070(13)
H60? H 0.8900 0.2197 0.7627
H61? H 0.8563 0.2490 0.8344
C72? C 0.788(2) 0.1424(16) 0.800(2)
H62? H 0.7088 0.1510 0.7784
H63? H 0.8151 0.1027 0.7733
H64? H 0.7817 0.1318 0.8446
O68? O 0.936(2) 0.2061(12) 0.9396(10)
C77? C 0.843(5) 0.3639(13) 0.2675(16)
H73? H 0.8114 0.3765 0.3091
H74? H 0.9315 0.3687 0.2770
H75? H 0.8170 0.3948 0.2365
C78? C 0.795(2) 0.2897(10) 0.2368(11)
O71? O 0.7219(12) 0.2610(6) 0.2733(7)
C79? C 0.6744(15) 0.1888(7) 0.2516(8)
H76? H 0.6718 0.1753 0.2030
H77? H 0.5913 0.1804 0.2614
C80? C 0.758(2) 0.1462(9) 0.2895(10)
H78? H 0.7282 0.0965 0.2759
H79? H 0.8400 0.1549 0.2794
H80? H 0.7598 0.1600 0.3375
O72? O 0.817(3) 0.2587(15) 0.1853(12)
C81? C 0.729(8) 0.1797(15) 0.270(3)
H81? H 0.7110 0.1948 0.3151
H82? H 0.6538 0.1586 0.2403
H83? H 0.7866 0.1454 0.2719
C82? C 0.782(3) 0.2413(11) 0.2451(13)
O73? O 0.789(2) 0.2995(9) 0.2890(10)
C83? C 0.840(13) 0.363(2) 0.267(2)
H84? H 0.7794 0.3785 0.2336
H85? H 0.9135 0.3557 0.2473
C84? C 0.869(4) 0.4169(12) 0.3314(17)
H86? H 0.9032 0.4617 0.3221
H87? H 0.7946 0.4231 0.3500
H88? H 0.9276 0.4004 0.3636
O74? O 0.814(4) 0.2415(17) 0.1914(13)
loop_
_geom_bond_atom_site_label_1
_geom_bond_atom_site_label_2
_geom_bond_site_symmetry_1
_geom_bond_site_symmetry_2
C1 C2 1_555 1_555
C2 H1 1_555 1_555
C3 C2 1_555 1_555
C4 C3 1_555 1_555
C5 C4 1_555 1_555
C6 C1 1_555 1_555
C7 C8 1_555 1_555
C8 H2 1_555 1_555
C9 C8 1_555 1_555
C10 C9 1_555 1_555
C11 C10 1_555 1_555
H3 C11 1_555 1_555
C12 C7 1_555 1_555
C13 C5 1_555 1_555
H4 C13 1_555 1_555
H5 C13 1_555 1_555
H6 C13 1_555 1_555
C14 C15 1_555 1_555
C15 H7 1_555 1_555
C16 C15 1_555 1_555
C17 C16 1_555 1_555
C18 C17 1_555 1_555
C19 C14 1_555 1_555
C20 C21 1_555 1_555
C21 H8 1_555 1_555
C22 C21 1_555 1_555
C23 C22 1_555 1_555
C24 C23 1_555 1_555
H9 C24 1_555 1_555
C25 C20 1_555 1_555
C26 C18 1_555 1_555
H10 C26 1_555 1_555
H11 C26 1_555 1_555
H12 C26 1_555 1_555
N1 C4 1_555 1_555
N2 C6 1_555 1_555
N3 C10 1_555 1_555
N4 C23 1_555 1_555
N5 C25 1_555 1_555
O1 C3 1_555 1_555
O2 C9 1_555 1_555
O3 N1 1_555 1_555
O4 N1 1_555 1_555
O5 N2 1_555 1_555
O6 N2 1_555 1_555
O7 N3 1_555 1_555
O8 N3 1_555 1_555
O9 C16 1_555 1_555
O10 C1 1_555 1_555
O11 N4 1_555 1_555
O12 N4 1_555 1_555
O13 N5 1_555 1_555
O14 N5 1_555 1_555
N6 C12 1_555 1_555
O15 N6 1_555 1_555
O16 N6 1_555 1_555
N7 C17 1_555 1_555
O17 N7 1_555 1_555
O18 N7 1_555 1_555
N8 C19 1_555 1_555
O19 N8 1_555 1_555
O20 N8 1_555 1_555
C27 C28 1_555 1_555
C28 H13 1_555 1_555
C29 C28 1_555 1_555
C30 C29 1_555 1_555
C31 C30 1_555 1_555
C32 C27 1_555 1_555
C33 C34 1_555 1_555
C34 H14 1_555 1_555
C35 C34 1_555 1_555
C36 C35 1_555 1_555
C37 C36 1_555 1_555
H15 C37 1_555 1_555
C38 C33 1_555 1_555
C39 C31 1_555 1_555
H16 C39 1_555 1_555
H17 C39 1_555 1_555
H18 C39 1_555 1_555
C40 C41 1_555 1_555
C41 H19 1_555 1_555
C42 C41 1_555 1_555
C43 C42 1_555 1_555
C44 C43 1_555 1_555
C45 C40 1_555 1_555
C46 C47 1_555 1_555
C47 H20 1_555 1_555
C48 C47 1_555 1_555
C49 C48 1_555 1_555
C50 C49 1_555 1_555
H21 C50 1_555 1_555
C51 C46 1_555 1_555
C52 C44 1_555 1_555
H22 C52 1_555 1_555
H23 C52 1_555 1_555
H24 C52 1_555 1_555
N12 C30 1_555 1_555
N13 C32 1_555 1_555
N14 C43 1_555 1_555
N15 C45 1_555 1_555
N16 C51 1_555 1_555
O27 C29 1_555 1_555
O28 C35 1_555 1_555
O29 N12 1_555 1_555
O30 N12 1_555 1_555
O31 N13 1_555 1_555
O32 N13 1_555 1_555
O33 C42 1_555 1_555
O34 C27 1_555 1_555
O35 N14 1_555 1_555
O36 N14 1_555 1_555
O37 N15 1_555 1_555
O38 N15 1_555 1_555
O39 N16 1_555 1_555
O40 N16 1_555 1_555
N17 C49 1_555 1_555
O41 N17 1_555 1_555
O42 N17 1_555 1_555
N18 C38 1_555 1_555
O43 N18 1_555 1_555
O44 N18 1_555 1_555
N19 C36 1_555 1_555
O45 N19 1_555 1_555
O46 N19 1_555 1_555
C53 H25 1_555 1_555
H26 C53 1_555 1_555
H27 C53 1_555 1_555
C54 C53 1_555 1_555
O59 C54 1_555 1_555
C55 O59 1_555 1_555
H28 C55 1_555 1_555
H29 C55 1_555 1_555
C56 C55 1_555 1_555
H30 C56 1_555 1_555
H31 C56 1_555 1_555
H32 C56 1_555 1_555
O60 C54 1_555 1_555
C57 H33 1_555 1_555
H34 C57 1_555 1_555
H35 C57 1_555 1_555
C58 C57 1_555 1_555
O61 C58 1_555 1_555
C59 O61 1_555 1_555
H36 C59 1_555 1_555
H37 C59 1_555 1_555
C60 C59 1_555 1_555
H38 C60 1_555 1_555
H39 C60 1_555 1_555
H40 C60 1_555 1_555
O62 C58 1_555 1_555
C65 H49 1_555 1_555
H50 C65 1_555 1_555
H51 C65 1_555 1_555
C66 C65 1_555 1_555
O65 C66 1_555 1_555
C67 O65 1_555 1_555
H52 C67 1_555 1_555
H53 C67 1_555 1_555
C68 C67 1_555 1_555
H54 C68 1_555 1_555
H55 C68 1_555 1_555
H56 C68 1_555 1_555
O66 C66 1_555 1_555
C73 H65 1_555 1_555
H66 C73 1_555 1_555
H67 C73 1_555 1_555
C74 C73 1_555 1_555
O69 C74 1_555 1_555
C75 O69 1_555 1_555
H68 C75 1_555 1_555
H69 C75 1_555 1_555
C76 C75 1_555 1_555
H70 C76 1_555 1_555
H71 C76 1_555 1_555
H72 C76 1_555 1_555
O70 C74 1_555 1_555
C27A C28A 1_555 1_555
C28A H13A 1_555 1_555
C29A C28A 1_555 1_555
C30A C29A 1_555 1_555
C31A C30A 1_555 1_555
C32A C27A 1_555 1_555
C33A C34A 1_555 1_555
C34A H14A 1_555 1_555
C35A C34A 1_555 1_555
C36A C35A 1_555 1_555
C37A C36A 1_555 1_555
H15A C37A 1_555 1_555
C38A C33A 1_555 1_555
C39A C31A 1_555 1_555
H16A C39A 1_555 1_555
H17A C39A 1_555 1_555
H18A C39A 1_555 1_555
C40A C41A 1_555 1_555
C41A H19A 1_555 1_555
C42A C41A 1_555 1_555
C43A C42A 1_555 1_555
C44A C43A 1_555 1_555
C45A C40A 1_555 1_555
C46A C47A 1_555 1_555
C47A H20A 1_555 1_555
C48A C47A 1_555 1_555
C49A C48A 1_555 1_555
C50A C49A 1_555 1_555
H21A C50A 1_555 1_555
C51A C46A 1_555 1_555
C52A C44A 1_555 1_555
H22A C52A 1_555 1_555
H23A C52A 1_555 1_555
H24A C52A 1_555 1_555
N12A C30A 1_555 1_555
N13A C32A 1_555 1_555
N14A C43A 1_555 1_555
N15A C45A 1_555 1_555
N16A C51A 1_555 1_555
O27A C29A 1_555 1_555
O28A C35A 1_555 1_555
O29A N12A 1_555 1_555
O30A N12A 1_555 1_555
O31A N13A 1_555 1_555
O32A N13A 1_555 1_555
O33A C42A 1_555 1_555
O34A C27A 1_555 1_555
O35A N14A 1_555 1_555
O36A N14A 1_555 1_555
O37A N15A 1_555 1_555
O38A N15A 1_555 1_555
O39A N16A 1_555 1_555
O40A N16A 1_555 1_555
N17A C49A 1_555 1_555
O41A N17A 1_555 1_555
O42A N17A 1_555 1_555
N18A C38A 1_555 1_555
O43A N18A 1_555 1_555
O44A N18A 1_555 1_555
N19A C36A 1_555 1_555
O45A N19A 1_555 1_555
O46A N19A 1_555 1_555
C5 C6 1_555 1_555
C7 O1 1_555 1_555
C11 C12 1_555 1_555
C14 O2 1_555 1_555
C18 C19 1_555 1_555
C20 O9 1_555 1_555
C22 O10 1_555 1_555
C24 C25 1_555 1_555
C31 C32 1_555 1_555
C33 O27 1_555 1_555
C37 C38 1_555 1_555
C40 O28 1_555 1_555
C44 C45 1_555 1_555
C46 O33 1_555 1_555
C48 O34 1_555 1_555
C50 C51 1_555 1_555
C31A C32A 1_555 1_555
C33A O27A 1_555 1_555
C37A C38A 1_555 1_555
C40A O28A 1_555 1_555
C44A C45A 1_555 1_555
C46A O33A 1_555 1_555
C48A O34A 1_555 1_555
C50A C51A 1_555 1_555

#END
