
#######################################################################
#
#                 Cambridge Crystallographic Data Centre
#                                CCDC 
#
#######################################################################
#
# If this CIF has been generated from an entry in the Cambridge 
# Structural Database, then it will include bibliographic, chemical, 
# crystal, experimental, refinement or atomic coordinate data resulting 
# from the CCDC's data processing and validation procedures.
#
#######################################################################

data_ZARKAG
_chemical_formula_moiety         'C31 H24 N6 O1'
_chemical_name_systematic        
bis(4-((3-(pyridin-2-yl)-1H-pyrazol-1-yl)methyl)phenyl)methanone
_symmetry_cell_setting           orthorhombic
_symmetry_space_group_name_H-M   'P b c n'
_symmetry_Int_Tables_number      60
_space_group_name_Hall           '-P 2n 2ab'
loop_
_symmetry_equiv_pos_site_id
_symmetry_equiv_pos_as_xyz
1 x,y,z
2 1/2-x,1/2-y,1/2+z
3 -x,y,1/2-z
4 1/2+x,1/2-y,-z
5 -x,-y,-z
6 1/2+x,1/2+y,1/2-z
7 x,-y,1/2+z
8 1/2-x,1/2+y,z
_cell_length_a                   8.5827(3)
_cell_length_b                   13.3565(5)
_cell_length_c                   21.0613(8)
_cell_angle_alpha                90
_cell_angle_beta                 90
_cell_angle_gamma                90
_cell_volume                     2414.36
_exptl_crystal_colour            colorless
_exptl_crystal_description       block
_cell_formula_units_Z            4
loop_
_atom_site_label
_atom_site_type_symbol
_atom_site_fract_x
_atom_site_fract_y
_atom_site_fract_z
N1 N 0.2511(2) 0.09398(15) 0.62748(8)
C1 C 0.2544(2) 0.05878(15) 0.56777(9)
C2 C 0.1572(3) -0.01766(16) 0.54766(10)
H1 H 0.1633 -0.0423 0.5054
C3 C 0.0502(3) -0.05794(17) 0.59057(11)
H2 H -0.0196 -0.1092 0.5776
C4 C 0.0472(3) -0.02272(17) 0.65144(11)
H3 H -0.0243 -0.0490 0.6816
C5 C 0.1502(3) 0.05179(19) 0.66802(11)
H4 H 0.1498 0.0747 0.7107
N2 N 0.47903(18) 0.14904(12) 0.43848(8)
N3 N 0.36294(19) 0.09075(12) 0.46153(7)
C6 C 0.3642(2) 0.10884(15) 0.52428(9)
C7 C 0.4785(2) 0.17937(17) 0.54057(10)
H5 H 0.5016 0.2050 0.5816
C8 C 0.5493(2) 0.20309(17) 0.48435(10)
H6 H 0.6325 0.2491 0.4787
C9 C 0.5031(2) 0.15626(16) 0.37027(9)
H7 H 0.5082 0.0881 0.3519
H8 H 0.6039 0.1898 0.3619
C10 C 0.1295(2) 0.32036(14) 0.28043(8)
C11 C 0.1794(2) 0.22853(14) 0.25608(9)
H9 H 0.1294 0.2012 0.2198
C12 C 0.3012(2) 0.17679(14) 0.28446(9)
H10 H 0.3356 0.1151 0.2668
C13 C 0.3731(2) 0.21458(15) 0.33835(9)
C14 C 0.3255(2) 0.30752(16) 0.36185(9)
H11 H 0.3755 0.3348 0.3982
C15 C 0.2064(2) 0.36035(14) 0.33286(9)
H12 H 0.1769 0.4241 0.3488
C16 C 0.0000 0.3777(2) 0.2500
O1 O 0.0000 0.46878(14) 0.2500
N1B N -0.2511(2) 0.09398(15) -0.12748(8)
C1B C -0.2544(2) 0.05878(15) -0.06777(9)
C2B C -0.1572(3) -0.01766(16) -0.04766(10)
H1B H -0.1633 -0.0423 -0.0054
C3B C -0.0502(3) -0.05794(17) -0.09057(11)
H2B H 0.0196 -0.1092 -0.0776
C4B C -0.0472(3) -0.02272(17) -0.15144(11)
H3B H 0.0243 -0.0490 -0.1816
C5B C -0.1502(3) 0.05179(19) -0.16802(11)
H4B H -0.1498 0.0747 -0.2107
N2B N -0.47903(18) 0.14904(12) 0.06152(8)
N3B N -0.36294(19) 0.09075(12) 0.03847(7)
C6B C -0.3642(2) 0.10884(15) -0.02428(9)
C7B C -0.4785(2) 0.17937(17) -0.04057(10)
H5B H -0.5016 0.2050 -0.0816
C8B C -0.5493(2) 0.20309(17) 0.01565(10)
H6B H -0.6325 0.2491 0.0213
C9B C -0.5031(2) 0.15626(16) 0.12973(9)
H7B H -0.5082 0.0881 0.1481
H8B H -0.6039 0.1898 0.1381
C10B C -0.1295(2) 0.32036(14) 0.21957(8)
C11B C -0.1794(2) 0.22853(14) 0.24392(9)
H9B H -0.1294 0.2012 0.2802
C12B C -0.3012(2) 0.17679(14) 0.21554(9)
H10B H -0.3356 0.1151 0.2332
C13B C -0.3731(2) 0.21458(15) 0.16165(9)
C14B C -0.3255(2) 0.30752(16) 0.13815(9)
H11B H -0.3755 0.3348 0.1018
C15B C -0.2064(2) 0.36035(14) 0.16714(9)
H12B H -0.1769 0.4241 0.1512
loop_
_geom_bond_atom_site_label_1
_geom_bond_atom_site_label_2
_geom_bond_site_symmetry_1
_geom_bond_site_symmetry_2
N1 C1 1_555 1_555
C1 C2 1_555 1_555
C2 H1 1_555 1_555
C3 C2 1_555 1_555
H2 C3 1_555 1_555
C4 C3 1_555 1_555
H3 C4 1_555 1_555
C5 N1 1_555 1_555
H4 C5 1_555 1_555
N2 N3 1_555 1_555
N3 C6 1_555 1_555
C6 C1 1_555 1_555
C7 C6 1_555 1_555
H5 C7 1_555 1_555
C8 N2 1_555 1_555
H6 C8 1_555 1_555
C9 N2 1_555 1_555
H7 C9 1_555 1_555
H8 C9 1_555 1_555
C10 C11 1_555 1_555
C11 H9 1_555 1_555
C12 C11 1_555 1_555
H10 C12 1_555 1_555
C13 C9 1_555 1_555
C14 C13 1_555 1_555
H11 C14 1_555 1_555
C15 C10 1_555 1_555
H12 C15 1_555 1_555
C16 C10 1_555 1_555
O1 C16 1_555 1_555
N1B C1B 1_555 1_555
C1B C2B 1_555 1_555
C2B H1B 1_555 1_555
C3B C2B 1_555 1_555
H2B C3B 1_555 1_555
C4B C3B 1_555 1_555
H3B C4B 1_555 1_555
C5B N1B 1_555 1_555
H4B C5B 1_555 1_555
N2B N3B 1_555 1_555
N3B C6B 1_555 1_555
C6B C1B 1_555 1_555
C7B C6B 1_555 1_555
H5B C7B 1_555 1_555
C8B N2B 1_555 1_555
H6B C8B 1_555 1_555
C9B N2B 1_555 1_555
H7B C9B 1_555 1_555
H8B C9B 1_555 1_555
C10B C16 1_555 1_555
C11B C10B 1_555 1_555
H9B C11B 1_555 1_555
C12B C11B 1_555 1_555
H10B C12B 1_555 1_555
C13B C9B 1_555 1_555
C14B C13B 1_555 1_555
H11B C14B 1_555 1_555
C15B C10B 1_555 1_555
H12B C15B 1_555 1_555
C4 C5 1_555 1_555
C7 C8 1_555 1_555
C12 C13 1_555 1_555
C14 C15 1_555 1_555
C4B C5B 1_555 1_555
C7B C8B 1_555 1_555
C12B C13B 1_555 1_555
C14B C15B 1_555 1_555

#END
