
#######################################################################
#
#                 Cambridge Crystallographic Data Centre
#                                CCDC 
#
#######################################################################
#
# If this CIF has been generated from an entry in the Cambridge 
# Structural Database, then it will include bibliographic, chemical, 
# crystal, experimental, refinement or atomic coordinate data resulting 
# from the CCDC's data processing and validation procedures.
#
#######################################################################

data_ZARNAK
_chemical_formula_moiety         'C27 H35 N6 O8 P1,C1 H2 Cl2,H2 O1'
_chemical_name_systematic        
'2-ethylbutyl N-(((5-(4-aminopyrrolo[2,1-f][1,2,4]triazin-7-yl)-5-cyano-3,4-dihydroxytetrahydrofuran-2-yl)methoxy)(phenoxy)phosphoryl)alaninate dichloromethane solvate monohydrate'
_chemical_properties_biological  bioactivity
_symmetry_cell_setting           monoclinic
_symmetry_space_group_name_H-M   'P 21'
_symmetry_Int_Tables_number      4
_space_group_name_Hall           'P 2yb'
loop_
_symmetry_equiv_pos_site_id
_symmetry_equiv_pos_as_xyz
1 x,y,z
2 -x,1/2+y,-z
_cell_length_a                   10.5800(4)
_cell_length_b                   7.4526(4)
_cell_length_c                   21.5691(12)
_cell_angle_alpha                90
_cell_angle_beta                 92.500(3)
_cell_angle_gamma                90
_cell_volume                     1699.07
_exptl_crystal_colour            colorless
_exptl_crystal_description       needle
_cell_formula_units_Z            2
loop_
_atom_site_label
_atom_site_type_symbol
_atom_site_fract_x
_atom_site_fract_y
_atom_site_fract_z
P1 P 0.61634(18) 0.6428(3) 0.73127(10)
O1 O 0.6226(5) 0.6451(9) 0.6641(3)
O2 O 0.5412(5) 0.0913(9) 0.6591(3)
H1 H 0.6160 0.0973 0.6477
O3 O 0.2623(5) 0.2653(9) 0.6761(3)
O4 O 0.4384(5) 0.1417(9) 0.5437(2)
H2 H 0.4107 0.1781 0.5089
N1 N 0.0305(6) 0.1897(9) 0.5984(3)
N2 N 0.6032(6) 0.8444(12) 0.7587(3)
H3 H 0.6068 0.9360 0.7331
O5 O 0.5115(5) 0.5166(10) 0.7581(3)
O6 O 0.4342(6) 0.8504(12) 0.8987(3)
N3 N 0.2750(7) -0.1697(13) 0.6200(4)
O7 O 0.3584(6) 0.8953(12) 0.8009(3)
N4 N -0.2822(6) 0.2421(12) 0.5260(3)
H4 H -0.3611 0.2204 0.5349
H5 H -0.2652 0.2884 0.4897
N5 N 0.0053(6) 0.1144(11) 0.6540(3)
C1 C 0.5857(8) 0.8783(14) 0.8238(4)
H6 H 0.6315 0.7844 0.8491
O8 O 0.7316(5) 0.5511(10) 0.7685(3)
N6 N -0.2147(6) 0.1354(12) 0.6215(3)
C2 C 0.2718(7) -0.0178(15) 0.6217(4)
C3 C 0.2659(7) 0.1824(13) 0.6171(4)
C4 C 0.4812(7) 0.2547(13) 0.6483(4)
H7 H 0.5451 0.3527 0.6448
C5 C 0.3912(7) 0.2510(12) 0.5905(4)
H8 H 0.3788 0.3758 0.5743
C6 C 0.4450(8) 0.8761(14) 0.8386(4)
C7 C 0.1336(7) 0.3031(14) 0.5199(4)
H9 H 0.1997 0.3434 0.4949
C8 C -0.1879(7) 0.2046(12) 0.5675(4)
C9 C 0.1496(7) 0.2279(14) 0.5785(4)
C10 C -0.0610(7) 0.2394(13) 0.5527(4)
C11 C 0.3930(7) 0.4901(14) 0.7219(4)
H10 H 0.3886 0.5718 0.6857
H11 H 0.3199 0.5148 0.7478
C12 C -0.1143(7) 0.0913(13) 0.6615(4)
H12 H -0.1356 0.0369 0.6995
C13 C 1.0429(9) 0.7598(16) 0.7937(5)
H13 H 1.0892 0.8252 0.8249
C14 C 0.3911(7) 0.2972(13) 0.7008(4)
H14 H 0.4102 0.2162 0.7370
C15 C 1.0946(9) 0.7239(15) 0.7378(5)
H15 H 1.1784 0.7628 0.7312
C16 C 0.6395(10) 1.0628(19) 0.8411(5)
H16 H 0.7305 1.0646 0.8344
H17 H 0.6252 1.0876 0.8848
H18 H 0.5972 1.1547 0.8151
C17 C 0.3037(8) 0.8402(17) 0.9212(5)
H19 H 0.2593 0.7344 0.9030
H20 H 0.2556 0.9492 0.9087
C18 C 0.0033(8) 0.3100(14) 0.5033(4)
H21 H -0.0337 0.3546 0.4654
C19 C 0.3125(9) 0.8251(17) 0.9900(5)
H22 H 0.3642 0.7157 0.9999
C20 C 0.8551(7) 0.6122(12) 0.7577(4)
C21 C 0.9186(9) 0.6970(16) 0.8037(5)
H23 H 0.8815 0.7151 0.8426
C22 C 1.0303(9) 0.6353(15) 0.6919(5)
H24 H 1.0681 0.6137 0.6534
C23 C 0.9070(9) 0.5755(15) 0.7015(5)
H25 H 0.8603 0.5112 0.6702
C24 C 0.3792(13) 0.980(2) 1.0220(6)
H26 H 0.3950 0.9499 1.0664
H27 H 0.4623 0.9980 1.0035
C25 C 0.1820(11) 0.791(2) 1.0144(6)
H28 H 0.1227 0.8817 0.9963
H29 H 0.1863 0.8088 1.0599
C26 C 0.307(2) 1.152(3) 1.0178(9)
H30 H 0.3512 1.2439 1.0432
H31 H 0.2221 1.1340 1.0329
H32 H 0.3007 1.1923 0.9744
C27 C 0.128(2) 0.604(4) 1.0004(9)
H33 H 0.1108 0.5913 0.9556
H34 H 0.0490 0.5882 1.0220
H35 H 0.1892 0.5127 1.0146
Cl1 Cl 0.2492(4) 0.3248(5) 0.85268(14)
Cl2 Cl -0.0135(4) 0.2086(5) 0.8426(2)
C28 C 0.1228(12) 0.2488(17) 0.8013(5)
H36 H 0.1045 0.3407 0.7690
H37 H 0.1485 0.1371 0.7804
O9 O 0.4159(6) 0.3231(10) 0.4430(3)
H38 H 0.464(10) 0.430(10) 0.445(5)
H39 H 0.385(11) 0.319(16) 0.401(2)
loop_
_geom_bond_atom_site_label_1
_geom_bond_atom_site_label_2
_geom_bond_site_symmetry_1
_geom_bond_site_symmetry_2
P1 O1 1_555 1_555
O2 H1 1_555 1_555
O3 C3 1_555 1_555
O4 H2 1_555 1_555
N1 N5 1_555 1_555
N2 P1 1_555 1_555
H3 N2 1_555 1_555
O5 P1 1_555 1_555
O6 C6 1_555 1_555
N3 C2 1_555 1_555
O7 C6 1_555 1_555
N4 H4 1_555 1_555
H5 N4 1_555 1_555
N5 C12 1_555 1_555
C1 N2 1_555 1_555
H6 C1 1_555 1_555
O8 P1 1_555 1_555
N6 C8 1_555 1_555
C2 C3 1_555 1_555
C3 C5 1_555 1_555
C4 O2 1_555 1_555
H7 C4 1_555 1_555
C5 O4 1_555 1_555
H8 C5 1_555 1_555
C6 C1 1_555 1_555
C7 H9 1_555 1_555
C8 N4 1_555 1_555
C9 N1 1_555 1_555
C10 N1 1_555 1_555
C11 O5 1_555 1_555
H10 C11 1_555 1_555
H11 C11 1_555 1_555
C12 N6 1_555 1_555
H12 C12 1_555 1_555
C13 H13 1_555 1_555
C14 O3 1_555 1_555
H14 C14 1_555 1_555
C15 C13 1_555 1_555
H15 C15 1_555 1_555
C16 C1 1_555 1_555
H16 C16 1_555 1_555
H17 C16 1_555 1_555
H18 C16 1_555 1_555
C17 O6 1_555 1_555
H19 C17 1_555 1_555
H20 C17 1_555 1_555
C18 C7 1_555 1_555
H21 C18 1_555 1_555
C19 C17 1_555 1_555
H22 C19 1_555 1_555
C20 O8 1_555 1_555
C21 C13 1_555 1_555
H23 C21 1_555 1_555
C22 C15 1_555 1_555
H24 C22 1_555 1_555
C23 C20 1_555 1_555
H25 C23 1_555 1_555
C24 C19 1_555 1_555
H26 C24 1_555 1_555
H27 C24 1_555 1_555
C25 C19 1_555 1_555
H28 C25 1_555 1_555
H29 C25 1_555 1_555
C26 C24 1_555 1_555
H30 C26 1_555 1_555
H31 C26 1_555 1_555
H32 C26 1_555 1_555
C27 C25 1_555 1_555
H33 C27 1_555 1_555
H34 C27 1_555 1_555
H35 C27 1_555 1_555
Cl1 C28 1_555 1_555
Cl2 C28 1_555 1_555
C28 H36 1_555 1_555
H37 C28 1_555 1_555
O9 H38 1_555 1_555
H39 O9 1_555 1_555
C3 C9 1_555 1_555
C4 C5 1_555 1_555
C4 C14 1_555 1_555
C7 C9 1_555 1_555
C8 C10 1_555 1_555
C10 C18 1_555 1_555
C11 C14 1_555 1_555
C20 C21 1_555 1_555
C22 C23 1_555 1_555

#END
