
#######################################################################
#
#                 Cambridge Crystallographic Data Centre
#                                CCDC 
#
#######################################################################
#
# If this CIF has been generated from an entry in the Cambridge 
# Structural Database, then it will include bibliographic, chemical, 
# crystal, experimental, refinement or atomic coordinate data resulting 
# from the CCDC's data processing and validation procedures.
#
#######################################################################

data_ZARPOZ
_chemical_formula_moiety         'C17 H9 N3 O2'
_chemical_name_systematic        
(3-(1,3-Benzoxazol-2-yl)-4-hydroxybenzylidene)malononitrile
_symmetry_cell_setting           monoclinic
_symmetry_space_group_name_H-M   'P 21/c'
_symmetry_Int_Tables_number      14
_space_group_name_Hall           '-P 2ybc'
loop_
_symmetry_equiv_pos_site_id
_symmetry_equiv_pos_as_xyz
1 x,y,z
2 -x,1/2+y,1/2-z
3 -x,-y,-z
4 x,1/2-y,1/2+z
_cell_length_a                   13.750(2)
_cell_length_b                   14.840(3)
_cell_length_c                   14.326(3)
_cell_angle_alpha                90
_cell_angle_beta                 116.653(4)
_cell_angle_gamma                90
_cell_volume                     2612.6
_exptl_crystal_colour            colorless
_exptl_crystal_description       plate
_cell_formula_units_Z            8
loop_
_atom_site_label
_atom_site_type_symbol
_atom_site_fract_x
_atom_site_fract_y
_atom_site_fract_z
O1 O -0.0765(2) 0.03128(19) 0.86713(18)
O2 O 0.2367(2) 0.0954(2) 0.9079(2)
N1 N 0.0825(3) -0.0199(2) 0.8790(2)
N2 N 0.1122(3) 0.5569(2) 0.8767(3)
N3 N -0.2124(3) 0.5596(2) 0.8509(3)
C1 C -0.0521(3) -0.2421(3) 0.8570(3)
H1 H -0.0436 -0.3055 0.8552
C2 C -0.1501(3) -0.2074(3) 0.8498(3)
H2 H -0.2062 -0.2480 0.8433
C3 C -0.1671(3) -0.1163(3) 0.8518(3)
H3 H -0.2335 -0.0923 0.8465
C4 C -0.0816(3) -0.0620(3) 0.8621(3)
C5 C 0.0156(3) -0.0944(3) 0.8688(3)
C6 C 0.0323(3) -0.1863(3) 0.8667(3)
H4 H 0.0987 -0.2098 0.8717
C7 C 0.0246(3) 0.0501(3) 0.8770(3)
C8 C 0.0597(3) 0.1429(3) 0.8851(3)
C9 C 0.1670(3) 0.1619(3) 0.9024(3)
C10 C 0.2042(3) 0.2512(3) 0.9157(3)
H5 H 0.2768 0.2637 0.9283
C11 C 0.1372(3) 0.3194(3) 0.9108(3)
H6 H 0.1639 0.3795 0.9216
C12 C 0.0277(3) 0.3032(3) 0.8900(3)
C13 C -0.0075(3) 0.2148(3) 0.8788(3)
H7 H -0.0802 0.2029 0.8664
C14 C -0.0499(3) 0.3718(3) 0.8800(3)
H8 H -0.1158 0.3492 0.8773
C15 C -0.0465(3) 0.4620(3) 0.8739(3)
C16 C 0.0433(3) 0.5127(3) 0.8764(3)
C17 C -0.1385(3) 0.5160(3) 0.8617(3)
H18 H 0.207(4) 0.043(2) 0.895(4)
O3 O 0.4291(2) 0.14010(19) 0.37088(18)
O4 O 0.7446(2) 0.2094(2) 0.4199(2)
N4 N 0.5908(3) 0.0905(2) 0.3870(2)
N5 N 0.5998(3) 0.6683(2) 0.3615(2)
N6 N 0.2756(3) 0.6665(2) 0.3321(3)
C18 C 0.3610(3) -0.0994(3) 0.3584(3)
H9 H 0.3056 -0.1405 0.3526
C19 C 0.4583(3) -0.1332(3) 0.3671(3)
H10 H 0.4675 -0.1966 0.3661
C20 C 0.5439(3) -0.0764(3) 0.3772(3)
H11 H 0.6110 -0.0996 0.3836
C21 C 0.5254(3) 0.0147(3) 0.3774(3)
C22 C 0.4258(3) 0.0465(3) 0.3681(3)
C23 C 0.3414(3) -0.0084(3) 0.3579(3)
H12 H 0.2741 0.0148 0.3509
C24 C 0.5304(3) 0.1596(3) 0.3831(3)
C25 C 0.5633(3) 0.2531(3) 0.3891(3)
C26 C 0.6711(3) 0.2739(3) 0.4077(3)
C27 C 0.7021(3) 0.3637(3) 0.4128(3)
H13 H 0.7742 0.3779 0.4249
C28 C 0.6306(3) 0.4317(3) 0.4008(3)
H14 H 0.6536 0.4926 0.4048
C29 C 0.5231(3) 0.4128(3) 0.3825(3)
C30 C 0.4917(3) 0.3229(3) 0.3769(3)
H15 H 0.4194 0.3092 0.3645
C31 C 0.4412(3) 0.4800(3) 0.3670(2)
H16 H 0.3747 0.4562 0.3614
C32 C 0.4426(3) 0.5707(3) 0.3589(3)
C33 C 0.5319(3) 0.6228(3) 0.3616(3)
C34 C 0.3493(3) 0.6234(3) 0.3440(3)
H17 H 0.715(3) 0.1571(18) 0.420(3)
loop_
_geom_bond_atom_site_label_1
_geom_bond_atom_site_label_2
_geom_bond_site_symmetry_1
_geom_bond_site_symmetry_2
O1 C4 1_555 1_555
O2 C9 1_555 1_555
O3 C22 1_555 1_555
O4 C26 1_555 1_555
N1 C5 1_555 1_555
N2 C16 1_555 1_555
N3 C17 1_555 1_555
N4 C21 1_555 1_555
N5 C33 1_555 1_555
N6 C34 1_555 1_555
C1 H1 1_555 1_555
C2 C1 1_555 1_555
H2 C2 1_555 1_555
C3 C2 1_555 1_555
H3 C3 1_555 1_555
C4 C3 1_555 1_555
C5 C4 1_555 1_555
C6 C1 1_555 1_555
H4 C6 1_555 1_555
C7 O1 1_555 1_555
C8 C7 1_555 1_555
C9 C8 1_555 1_555
C10 C9 1_555 1_555
H5 C10 1_555 1_555
C11 C10 1_555 1_555
H6 C11 1_555 1_555
C12 C11 1_555 1_555
C13 C8 1_555 1_555
H7 C13 1_555 1_555
C14 C12 1_555 1_555
H8 C14 1_555 1_555
C15 C14 1_555 1_555
C16 C15 1_555 1_555
C17 C15 1_555 1_555
C18 H9 1_555 1_555
C19 C18 1_555 1_555
H10 C19 1_555 1_555
C20 C19 1_555 1_555
H11 C20 1_555 1_555
C21 C20 1_555 1_555
C22 C21 1_555 1_555
C23 C18 1_555 1_555
H12 C23 1_555 1_555
C24 O3 1_555 1_555
C25 C24 1_555 1_555
C26 C25 1_555 1_555
C27 C26 1_555 1_555
H13 C27 1_555 1_555
C28 C27 1_555 1_555
H14 C28 1_555 1_555
C29 C28 1_555 1_555
C30 C25 1_555 1_555
H15 C30 1_555 1_555
C31 C29 1_555 1_555
H16 C31 1_555 1_555
C32 C31 1_555 1_555
C33 C32 1_555 1_555
C34 C32 1_555 1_555
H17 O4 1_555 1_555
H18 O2 1_555 1_555
N1 C7 1_555 1_555
N4 C24 1_555 1_555
C5 C6 1_555 1_555
C12 C13 1_555 1_555
C22 C23 1_555 1_555
C29 C30 1_555 1_555

#END
