
#######################################################################
#
#                 Cambridge Crystallographic Data Centre
#                                CCDC 
#
#######################################################################
#
# If this CIF has been generated from an entry in the Cambridge 
# Structural Database, then it will include bibliographic, chemical, 
# crystal, experimental, refinement or atomic coordinate data resulting 
# from the CCDC's data processing and validation procedures.
#
#######################################################################

data_ZASFIL
_chemical_formula_moiety         '2(C36 H48 Cl3 Li3 N4 O3),C6 H6'
_chemical_name_systematic        
"(\m-N,N',N''-[nitrilotri(ethane-2,1-diyl)]tris(2-chlorobenzen-1-aminido))-tris(tetrahydrofuran)-tri-lithium benzene solvate"
_symmetry_cell_setting           trigonal
_symmetry_space_group_name_H-M   'P -3'
_symmetry_Int_Tables_number      147
_space_group_name_Hall           '-P 3'
loop_
_symmetry_equiv_pos_site_id
_symmetry_equiv_pos_as_xyz
1 x,y,z
2 -y,x-y,z
3 -x+y,-x,z
4 -x,-y,-z
5 y,-x+y,-z
6 x-y,x,-z
_cell_length_a                   12.9469(17)
_cell_length_b                   12.9469(17)
_cell_length_c                   13.5591(19)
_cell_angle_alpha                90
_cell_angle_beta                 90
_cell_angle_gamma                120
_cell_volume                     1968.31
_exptl_crystal_colour            colorless
_exptl_crystal_description       block
_cell_formula_units_Z            1
loop_
_atom_site_label
_atom_site_type_symbol
_atom_site_fract_x
_atom_site_fract_y
_atom_site_fract_z
Cl1 Cl 0.49646(6) 0.28833(6) 0.38733(4)
O1 O 0.35659(15) 0.07425(15) 0.19740(12)
N1 N 0.6667 0.3333 0.0451(2)
N2 N 0.50992(16) 0.35859(16) 0.17929(12)
C1 C 0.54890(19) 0.30934(19) 0.01346(14)
H1 H 0.4918 0.2228 0.0194
H2 H 0.5527 0.3313 -0.0569
C2 C 0.50294(19) 0.3775(2) 0.07348(14)
H3 H 0.5511 0.4637 0.0584
H4 H 0.4191 0.3501 0.0551
C3 C 0.44851(18) 0.39647(19) 0.23642(15)
C4 C 0.3930(2) 0.4612(2) 0.20352(16)
H5 H 0.3944 0.4776 0.1351
C5 C 0.3369(2) 0.5012(2) 0.26719(19)
H6 H 0.3012 0.5441 0.2414
C6 C 0.3316(2) 0.4799(2) 0.36781(18)
H7 H 0.2947 0.5094 0.4111
C7 C 0.3820(2) 0.4142(2) 0.40380(17)
H8 H 0.3787 0.3974 0.4723
C8 C 0.43657(19) 0.3735(2) 0.33988(16)
C9 C 0.2925(3) -0.0129(3) 0.2741(2)
H9 H 0.3138 0.0251 0.3400
H10 H 0.3117 -0.0779 0.2721
C10 C 0.1613(3) -0.0609(3) 0.2528(2)
H11 H 0.1129 -0.1457 0.2724
H12 H 0.1312 -0.0139 0.2875
C11 C 0.1599(3) -0.0468(3) 0.1442(3)
H13 H 0.0881 -0.0441 0.1228
H14 H 0.1633 -0.1120 0.1089
C12 C 0.2725(3) 0.0720(3) 0.1283(2)
H15 H 0.3021 0.0783 0.0600
H16 H 0.2575 0.1388 0.1406
Li1 Li 0.5204(3) 0.2125(3) 0.2109(3)
Cl1A Cl 0.71167(6) 0.20813(8) 0.38733(4)
N2A N 0.64141(16) 0.15133(23) 0.17929(12)
C1A C 0.69066(19) 0.23956(27) 0.01346(14)
H1A H 0.7772 0.2690 0.0194
H2A H 0.6687 0.2214 -0.0569
C2A C 0.6225(2) 0.12544(28) 0.07348(14)
H3A H 0.5363 0.0874 0.0584
H4A H 0.6499 0.0690 0.0551
C3A C 0.60353(19) 0.05204(26) 0.23642(15)
C4A C 0.5388(2) -0.0682(3) 0.20352(16)
H5A H 0.5224 -0.0832 0.1351
C5A C 0.4988(2) -0.1643(3) 0.26719(19)
H6A H 0.4559 -0.2429 0.2414
C6A C 0.5201(2) -0.1483(3) 0.36781(18)
H7A H 0.4906 -0.2147 0.4111
C7A C 0.5858(2) -0.0322(3) 0.40380(17)
H8A H 0.6026 -0.0187 0.4723
C8A C 0.6265(2) 0.06307(28) 0.33988(16)
Cl1B Cl 0.79187(8) 0.50354(6) 0.38733(4)
N2B N 0.84867(23) 0.49008(16) 0.17929(12)
C1B C 0.76044(27) 0.45110(19) 0.01346(14)
H1B H 0.7310 0.5082 0.0194
H2B H 0.7786 0.4473 -0.0569
C2B C 0.87456(28) 0.49706(19) 0.07348(14)
H3B H 0.9126 0.4489 0.0584
H4B H 0.9310 0.5809 0.0551
C3B C 0.94796(26) 0.55149(18) 0.23642(15)
C4B C 1.0682(3) 0.6070(2) 0.20352(16)
H5B H 1.0832 0.6056 0.1351
C5B C 1.1643(3) 0.6631(2) 0.26719(19)
H6B H 1.2429 0.6988 0.2414
C6B C 1.1483(3) 0.6684(2) 0.36781(18)
H7B H 1.2147 0.7053 0.4111
C7B C 1.0322(3) 0.6180(2) 0.40380(17)
H8B H 1.0187 0.6213 0.4723
C8B C 0.93693(28) 0.56343(19) 0.33988(16)
O1A O 0.92575(15) 0.28234(21) 0.19740(12)
C9A C 1.0129(3) 0.3054(4) 0.2741(2)
H9A H 0.9749 0.2887 0.3400
H10A H 1.0779 0.3896 0.2721
C10A C 1.0609(3) 0.2222(4) 0.2528(2)
H11A H 1.1457 0.2586 0.2724
H12A H 1.0139 0.1451 0.2875
C11A C 1.0468(3) 0.2067(4) 0.1442(3)
H13A H 1.0441 0.1322 0.1228
H14A H 1.1120 0.2753 0.1089
C12A C 0.9280(3) 0.2005(4) 0.1283(2)
H15A H 0.9217 0.2238 0.0600
H16A H 0.8612 0.1187 0.1406
Li1A Li 0.7875(3) 0.3079(4) 0.2109(3)
O1B O 0.71766(21) 0.64341(15) 0.19740(12)
C9B C 0.6946(4) 0.7075(3) 0.2741(2)
H9B H 0.7113 0.6862 0.3400
H10B H 0.6104 0.6883 0.2721
C10B C 0.7778(4) 0.8387(3) 0.2528(2)
H11B H 0.7414 0.8871 0.2724
H12B H 0.8549 0.8688 0.2875
C11B C 0.7933(4) 0.8401(3) 0.1442(3)
H13B H 0.8678 0.9119 0.1228
H14B H 0.7247 0.8367 0.1089
C12B C 0.7995(4) 0.7275(3) 0.1283(2)
H15B H 0.7762 0.6979 0.0600
H16B H 0.8813 0.7425 0.1406
Li1B Li 0.6921(4) 0.4796(3) 0.2109(3)
C13 C 0.1227(4) 0.0676(6) 0.5001(3)
H17 H 0.2072 0.1142 0.5002
C13D C 0.0676(6) -0.0551(7) 0.4999(3)
H17D H 0.1142 -0.0930 0.4998
C13E C 0.0551(7) 0.1227(4) 0.4999(3)
H17E H 0.0930 0.2072 0.4998
C13A C -0.0676(6) 0.0551(7) 0.5001(3)
H17A H -0.1142 0.0930 0.5002
C13B C -0.0551(7) -0.1227(4) 0.5001(3)
H17B H -0.0930 -0.2072 0.5002
C13C C -0.1227(4) -0.0676(6) 0.4999(3)
H17C H -0.2072 -0.1142 0.4998
loop_
_geom_bond_atom_site_label_1
_geom_bond_atom_site_label_2
_geom_bond_site_symmetry_1
_geom_bond_site_symmetry_2
Cl1 C8 1_555 1_555
O1 C9 1_555 1_555
N1 C1 1_555 1_555
N2 C2 1_555 1_555
C1 H1 1_555 1_555
H2 C1 1_555 1_555
C2 C1 1_555 1_555
H3 C2 1_555 1_555
H4 C2 1_555 1_555
C3 N2 1_555 1_555
C4 C3 1_555 1_555
H5 C4 1_555 1_555
C5 C4 1_555 1_555
H6 C5 1_555 1_555
C6 C5 1_555 1_555
H7 C6 1_555 1_555
C7 C6 1_555 1_555
H8 C7 1_555 1_555
C8 C3 1_555 1_555
C9 H9 1_555 1_555
H10 C9 1_555 1_555
C10 C9 1_555 1_555
H11 C10 1_555 1_555
H12 C10 1_555 1_555
C11 C10 1_555 1_555
H13 C11 1_555 1_555
H14 C11 1_555 1_555
C12 O1 1_555 1_555
H15 C12 1_555 1_555
H16 C12 1_555 1_555
Li1 Cl1 1_555 1_555
C13 H17 1_555 1_555
Cl1A C8A 1_555 1_555
N2A Li1 1_555 1_555
C1A N1 1_555 1_555
H1A C1A 1_555 1_555
H2A C1A 1_555 1_555
C2A N2A 1_555 1_555
H3A C2A 1_555 1_555
H4A C2A 1_555 1_555
C3A N2A 1_555 1_555
C4A C3A 1_555 1_555
H5A C4A 1_555 1_555
C5A C4A 1_555 1_555
H6A C5A 1_555 1_555
C6A C5A 1_555 1_555
H7A C6A 1_555 1_555
C7A C6A 1_555 1_555
H8A C7A 1_555 1_555
C8A C3A 1_555 1_555
Cl1B C8B 1_555 1_555
N2B C2B 1_555 1_555
C1B N1 1_555 1_555
H1B C1B 1_555 1_555
H2B C1B 1_555 1_555
C2B C1B 1_555 1_555
H3B C2B 1_555 1_555
H4B C2B 1_555 1_555
C3B N2B 1_555 1_555
C4B C3B 1_555 1_555
H5B C4B 1_555 1_555
C5B C4B 1_555 1_555
H6B C5B 1_555 1_555
C6B C5B 1_555 1_555
H7B C6B 1_555 1_555
C7B C6B 1_555 1_555
H8B C7B 1_555 1_555
C8B C3B 1_555 1_555
O1A C9A 1_555 1_555
C9A H9A 1_555 1_555
H10A C9A 1_555 1_555
C10A C9A 1_555 1_555
H11A C10A 1_555 1_555
H12A C10A 1_555 1_555
C11A C10A 1_555 1_555
H13A C11A 1_555 1_555
H14A C11A 1_555 1_555
C12A O1A 1_555 1_555
H15A C12A 1_555 1_555
H16A C12A 1_555 1_555
Li1A Cl1A 1_555 1_555
O1B C9B 1_555 1_555
C9B H9B 1_555 1_555
H10B C9B 1_555 1_555
C10B C9B 1_555 1_555
H11B C10B 1_555 1_555
H12B C10B 1_555 1_555
C11B C10B 1_555 1_555
H13B C11B 1_555 1_555
H14B C11B 1_555 1_555
C12B O1B 1_555 1_555
H15B C12B 1_555 1_555
H16B C12B 1_555 1_555
Li1B N2 1_555 1_555
C13D C13 1_555 1_555
H17D C13D 1_555 1_555
C13E C13 1_555 1_555
H17E C13E 1_555 1_555
C13A C13E 1_555 1_555
H17A C13A 1_555 1_555
C13B C13D 1_555 1_555
H17B C13B 1_555 1_555
C13C C13A 1_555 1_555
H17C C13C 1_555 1_555
O1 Li1 1_555 1_555
N2 Li1 1_555 1_555
C7 C8 1_555 1_555
C11 C12 1_555 1_555
N2A Li1A 1_555 1_555
C1A C2A 1_555 1_555
C7A C8A 1_555 1_555
Cl1B Li1B 1_555 1_555
N2B Li1A 1_555 1_555
N2B Li1B 1_555 1_555
C7B C8B 1_555 1_555
O1A Li1A 1_555 1_555
C11A C12A 1_555 1_555
O1B Li1B 1_555 1_555
C11B C12B 1_555 1_555
C13B C13C 1_555 1_555

#END
