
#######################################################################
#
#                 Cambridge Crystallographic Data Centre
#                                CCDC 
#
#######################################################################
#
# If this CIF has been generated from an entry in the Cambridge 
# Structural Database, then it will include bibliographic, chemical, 
# crystal, experimental, refinement or atomic coordinate data resulting 
# from the CCDC's data processing and validation procedures.
#
#######################################################################

data_ZASKAI
_chemical_formula_moiety         'C24 H33 N3 O9,5(H2 O1)'
_chemical_name_systematic        
"5,5',5''-[benzene-1,3,5-triyltris(carbonylazanediyl)]tripentanoic acid pentahydrate"
_symmetry_cell_setting           monoclinic
_symmetry_space_group_name_H-M   'P 2/n'
_symmetry_Int_Tables_number      13
_space_group_name_Hall           '-P 2yac'
loop_
_symmetry_equiv_pos_site_id
_symmetry_equiv_pos_as_xyz
1 x,y,z
2 1/2-x,y,1/2-z
3 -x,-y,-z
4 1/2+x,-y,1/2+z
_cell_length_a                   24.6517(13)
_cell_length_b                   4.7182(3)
_cell_length_c                   25.6558(12)
_cell_angle_alpha                90
_cell_angle_beta                 96.827(4)
_cell_angle_gamma                90
_cell_volume                     2962.91
_exptl_crystal_colour            colorless
_exptl_crystal_description       rod
_cell_formula_units_Z            4
loop_
_atom_site_label
_atom_site_type_symbol
_atom_site_fract_x
_atom_site_fract_y
_atom_site_fract_z
O1 O 0.54530(7) 0.2843(4) 0.11897(7)
O2 O 0.31889(8) 1.0190(5) 0.10580(8)
O3 O 0.25942(8) 1.1419(4) 0.03781(7)
H1 H 0.2421(14) 1.237(7) 0.0631(12)
O4 O 0.41845(7) 0.7727(4) 0.30382(7)
O5 O 0.43021(7) 0.5586(3) 0.55995(6)
O6 O 0.34469(7) 0.4300(4) 0.57064(7)
H2 H 0.3612(12) 0.327(6) 0.5967(10)
O7 O 0.60804(7) -0.0855(3) 0.35698(6)
O8 O 0.85745(8) -0.2284(4) 0.32935(7)
O9 O 0.87920(7) -0.0431(4) 0.40913(7)
H3 H 0.9025(12) 0.067(6) 0.3935(13)
N1 N 0.48553(8) 0.6382(4) 0.12389(7)
H4 H 0.4695(11) 0.765(5) 0.1440(10)
N2 N 0.48570(8) 0.7472(4) 0.37189(7)
H5 H 0.5192(8) 0.686(6) 0.3846(11)
N3 N 0.63766(8) -0.2040(4) 0.27966(8)
H6 H 0.6348(11) -0.177(6) 0.2457(7)
C1 C 0.56027(9) 0.2004(4) 0.22731(9)
H7 H 0.5817 0.0950 0.2057
C2 C 0.56651(9) 0.1545(4) 0.28141(9)
C3 C 0.53545(9) 0.3116(5) 0.31300(9)
H8 H 0.5400 0.2834 0.3499
C4 C 0.49792(9) 0.5093(4) 0.29075(9)
C5 C 0.49104(9) 0.5519(5) 0.23663(9)
H9 H 0.4647 0.6840 0.2214
C6 C 0.52303(9) 0.3992(5) 0.20482(9)
C7 C 0.51846(9) 0.4374(5) 0.14593(9)
C8 C 0.48131(10) 0.6916(5) 0.06737(9)
H10 H 0.4831 0.5089 0.0487
H11 H 0.5128 0.8084 0.0597
C9 C 0.42847(10) 0.8432(5) 0.04705(9)
H12 H 0.4317 0.9174 0.0115
H13 H 0.4235 1.0070 0.0701
C10 C 0.37797(10) 0.6535(5) 0.04466(10)
H14 H 0.3836 0.4853 0.0229
H15 H 0.3739 0.5861 0.0805
C11 C 0.32545(10) 0.8016(5) 0.02211(10)
H16 H 0.3328 0.9119 -0.0091
H17 H 0.2979 0.6555 0.0102
C12 C 0.30170(10) 0.9963(5) 0.05947(10)
C13 C 0.46407(9) 0.6851(5) 0.32339(9)
C14 C 0.45793(9) 0.9248(5) 0.40718(9)
H18 H 0.4354 1.0679 0.3863
H19 H 0.4856 1.0268 0.4314
C15 C 0.42152(9) 0.7516(5) 0.43911(9)
H20 H 0.4438 0.6060 0.4595
H21 H 0.3933 0.6530 0.4150
C16 C 0.39376(10) 0.9400(5) 0.47658(9)
H22 H 0.4221 1.0296 0.5018
H23 H 0.3736 1.0930 0.4562
C17 C 0.35427(9) 0.7778(5) 0.50691(9)
H24 H 0.3319 0.9160 0.5240
H25 H 0.3292 0.6665 0.4817
C18 C 0.38110(9) 0.5814(5) 0.54790(9)
C19 C 0.60570(9) -0.0556(4) 0.30862(9)
C20 C 0.67678(9) -0.4150(5) 0.30277(9)
H26 H 0.6880 -0.5362 0.2744
H27 H 0.6585 -0.5379 0.3267
C21 C 0.72754(9) -0.2854(5) 0.33317(9)
H28 H 0.7164 -0.1510 0.3596
H29 H 0.7479 -0.1777 0.3087
C22 C 0.76494(9) -0.5119(5) 0.36088(9)
H30 H 0.7427 -0.6445 0.3794
H31 H 0.7820 -0.6216 0.3342
C23 C 0.80952(9) -0.3881(5) 0.40006(9)
H32 H 0.7924 -0.2687 0.4253
H33 H 0.8289 -0.5450 0.4200
C24 C 0.85066(9) -0.2120(5) 0.37530(9)
O10 O 0.35213(8) 1.4099(4) 0.23815(8)
H34 H 0.3774(13) 1.531(7) 0.2568(13)
H35 H 0.3381(14) 1.289(6) 0.2606(12)
O11 O 0.27067(9) 1.7269(5) 0.18252(9)
H36 H 0.2967(14) 1.615(8) 0.2043(14)
H37 H 0.2918(15) 1.848(7) 0.1646(15)
O12 O 0.41353(8) 1.0376(4) 0.17353(8)
H38 H 0.3999(15) 1.167(6) 0.1944(13)
H39 H 0.3817(10) 1.013(8) 0.1509(12)
O13 O 0.21000(8) 1.3992(4) 0.10726(8)
H40 H 0.2315(13) 1.511(7) 0.1295(12)
H41 H 0.1954(14) 1.273(6) 0.1295(13)
O14 O 0.32426(8) 1.0490(4) 0.31768(8)
H42 H 0.2971(13) 0.910(7) 0.3133(16)
H43 H 0.3580(10) 0.961(7) 0.3198(13)
loop_
_geom_bond_atom_site_label_1
_geom_bond_atom_site_label_2
_geom_bond_site_symmetry_1
_geom_bond_site_symmetry_2
O1 C7 1_555 1_555
O2 C12 1_555 1_555
O3 H1 1_555 1_555
O4 C13 1_555 1_555
O5 C18 1_555 1_555
O6 H2 1_555 1_555
O7 C19 1_555 1_555
O8 C24 1_555 1_555
O9 H3 1_555 1_555
N1 H4 1_555 1_555
N2 H5 1_555 1_555
N3 H6 1_555 1_555
C1 H7 1_555 1_555
C2 C1 1_555 1_555
C3 C2 1_555 1_555
H8 C3 1_555 1_555
C4 C3 1_555 1_555
C5 C4 1_555 1_555
H9 C5 1_555 1_555
C6 C1 1_555 1_555
C7 N1 1_555 1_555
C8 N1 1_555 1_555
H10 C8 1_555 1_555
H11 C8 1_555 1_555
C9 C8 1_555 1_555
H12 C9 1_555 1_555
H13 C9 1_555 1_555
C10 C9 1_555 1_555
H14 C10 1_555 1_555
H15 C10 1_555 1_555
C11 C10 1_555 1_555
H16 C11 1_555 1_555
H17 C11 1_555 1_555
C12 O3 1_555 1_555
C13 N2 1_555 1_555
C14 N2 1_555 1_555
H18 C14 1_555 1_555
H19 C14 1_555 1_555
C15 C14 1_555 1_555
H20 C15 1_555 1_555
H21 C15 1_555 1_555
C16 C15 1_555 1_555
H22 C16 1_555 1_555
H23 C16 1_555 1_555
C17 C16 1_555 1_555
H24 C17 1_555 1_555
H25 C17 1_555 1_555
C18 O6 1_555 1_555
C19 N3 1_555 1_555
C20 N3 1_555 1_555
H26 C20 1_555 1_555
H27 C20 1_555 1_555
C21 C20 1_555 1_555
H28 C21 1_555 1_555
H29 C21 1_555 1_555
C22 C21 1_555 1_555
H30 C22 1_555 1_555
H31 C22 1_555 1_555
C23 C22 1_555 1_555
H32 C23 1_555 1_555
H33 C23 1_555 1_555
C24 O9 1_555 1_555
O10 H34 1_555 1_555
H35 O10 1_555 1_555
O11 H36 1_555 1_555
H37 O11 1_555 1_555
O12 H38 1_555 1_555
H39 O12 1_555 1_555
O13 H40 1_555 1_555
H41 O13 1_555 1_555
O14 H42 1_555 1_555
H43 O14 1_555 1_555
C2 C19 1_555 1_555
C4 C13 1_555 1_555
C5 C6 1_555 1_555
C6 C7 1_555 1_555
C11 C12 1_555 1_555
C17 C18 1_555 1_555
C23 C24 1_555 1_555

#END
