
#######################################################################
#
#                 Cambridge Crystallographic Data Centre
#                                CCDC 
#
#######################################################################
#
# If this CIF has been generated from an entry in the Cambridge 
# Structural Database, then it will include bibliographic, chemical, 
# crystal, experimental, refinement or atomic coordinate data resulting 
# from the CCDC's data processing and validation procedures.
#
#######################################################################

data_ZASQIW
_chemical_formula_moiety         'C42 H36 N4 O3 S3'
_chemical_name_systematic        
2,2',2''-nitrilotris(N-(2-(phenylsulfanyl)phenyl)acetamide)
_symmetry_cell_setting           triclinic
_symmetry_space_group_name_H-M   'P -1'
_symmetry_Int_Tables_number      2
_space_group_name_Hall           '-P 1'
loop_
_symmetry_equiv_pos_site_id
_symmetry_equiv_pos_as_xyz
1 x,y,z
2 -x,-y,-z
_cell_length_a                   5.1073(2)
_cell_length_b                   16.1523(5)
_cell_length_c                   21.9489(7)
_cell_angle_alpha                91.374(2)
_cell_angle_beta                 90.590(2)
_cell_angle_gamma                98.405(2)
_cell_volume                     1790.53
_exptl_crystal_colour            colorless
_exptl_crystal_description       needle
_cell_formula_units_Z            2
loop_
_atom_site_label
_atom_site_type_symbol
_atom_site_fract_x
_atom_site_fract_y
_atom_site_fract_z
S1 S 0.95240(13) 0.83452(4) 0.62400(3)
S2 S -0.03158(13) 0.84385(4) 0.92643(3)
S3 S 0.74750(13) 0.30540(4) 0.74468(3)
O1 O 0.0692(4) 0.63696(14) 0.56430(10)
O2 O 0.6674(3) 0.77639(11) 0.77881(9)
O3 O 0.1238(3) 0.51001(11) 0.77861(8)
N1 N 0.4014(4) 0.64297(11) 0.70975(9)
N2 N 0.4508(4) 0.71695(13) 0.59956(9)
N3 N 0.2829(4) 0.81669(12) 0.81198(9)
N4 N 0.5051(4) 0.45398(12) 0.79299(10)
C1 C 0.2487(5) 0.60119(15) 0.65860(11)
H1 H 0.0641 0.5843 0.6717
H2 H 0.3223 0.5495 0.6475
C2 C 0.2451(5) 0.65385(15) 0.60234(12)
C3 C 0.5124(5) 0.77494(15) 0.55352(11)
C4 C 0.3517(6) 0.77611(18) 0.50203(12)
H3 H 0.1950 0.7367 0.4973
C5 C 0.4195(6) 0.8344(2) 0.45773(13)
H4 H 0.3055 0.8357 0.4234
C6 C 0.6496(6) 0.89080(19) 0.46241(13)
H5 H 0.6958 0.9299 0.4312
C7 C 0.8120(6) 0.88978(17) 0.51299(13)
H6 H 0.9724 0.9277 0.5164
C8 C 0.7412(5) 0.83311(15) 0.55914(11)
C9 C 0.9397(5) 0.93353(15) 0.65967(11)
C10 C 0.7556(5) 0.98603(17) 0.64654(12)
H7 H 0.6219 0.9699 0.6164
C11 C 0.7682(6) 1.06210(17) 0.67770(13)
H8 H 0.6417 1.0979 0.6687
C12 C 0.9601(6) 1.08685(17) 0.72138(13)
H9 H 0.9681 1.1395 0.7422
C13 C 1.1418(6) 1.03376(17) 0.73464(14)
H10 H 1.2738 1.0497 0.7652
C14 C 1.1324(5) 0.95826(16) 0.70383(13)
H11 H 1.2594 0.9227 0.7130
C15 C 0.2517(4) 0.69627(14) 0.74570(11)
H12 H 0.1436 0.6616 0.7755
H13 H 0.1293 0.7205 0.7183
C16 C 0.4267(4) 0.76684(13) 0.77973(10)
C17 C 0.3824(5) 0.88940(14) 0.84667(11)
C18 C 0.6023(5) 0.94384(15) 0.82806(12)
H14 H 0.6945 0.9304 0.7926
C19 C 0.6872(6) 1.01686(16) 0.86057(12)
H15 H 0.8392 1.0531 0.8478
C20 C 0.5530(6) 1.03778(16) 0.91144(13)
H16 H 0.6094 1.0891 0.9330
C21 C 0.3363(6) 0.98412(17) 0.93120(12)
H17 H 0.2443 0.9987 0.9663
C22 C 0.2526(5) 0.90904(15) 0.89990(11)
C23 C 0.0844(5) 0.74625(16) 0.93743(11)
C24 C 0.3031(5) 0.73882(18) 0.97323(13)
H18 H 0.4079 0.7876 0.9901
C25 C 0.3704(6) 0.6607(2) 0.98463(14)
H19 H 0.5201 0.6558 1.0096
C26 C 0.2194(7) 0.5898(2) 0.95966(16)
H20 H 0.2651 0.5361 0.9677
C27 C 0.0041(7) 0.5967(2) 0.92342(16)
H21 H -0.0989 0.5478 0.9063
C28 C -0.0641(6) 0.67516(19) 0.91169(14)
H22 H -0.2120 0.6799 0.8861
C29 C 0.5376(5) 0.58777(14) 0.74572(12)
H23 H 0.6364 0.6215 0.7791
H24 H 0.6692 0.5656 0.7195
C30 C 0.3633(5) 0.51379(14) 0.77374(11)
C31 C 0.4000(5) 0.37717(15) 0.81893(11)
C32 C 0.2067(5) 0.37315(17) 0.86278(12)
H25 H 0.1353 0.4223 0.8742
C33 C 0.1158(6) 0.29818(19) 0.89020(13)
H26 H -0.0194 0.2958 0.9198
C34 C 0.2220(6) 0.22713(18) 0.87451(14)
H27 H 0.1649 0.1762 0.8945
C35 C 0.4113(6) 0.22971(16) 0.82985(14)
H28 H 0.4821 0.1803 0.8188
C36 C 0.4990(5) 0.30427(15) 0.80084(12)
C37 C 0.5893(5) 0.33858(16) 0.67860(13)
C38 C 0.3516(6) 0.2970(2) 0.65651(14)
H29 H 0.2600 0.2514 0.6779
C39 C 0.2480(7) 0.3221(3) 0.60292(16)
H30 H 0.0828 0.2939 0.5879
C40 C 0.3794(8) 0.3874(3) 0.57069(16)
H31 H 0.3062 0.4039 0.5337
C41 C 0.6170(8) 0.4282(2) 0.59264(16)
H32 H 0.7103 0.4729 0.5706
C42 C 0.7212(6) 0.40458(18) 0.64684(14)
H33 H 0.8841 0.4338 0.6623
H34 H 0.555(5) 0.7219(18) 0.6304(10)
H35 H 0.111(3) 0.8038(16) 0.8092(12)
H36 H 0.671(4) 0.4578(16) 0.7819(11)
loop_
_geom_bond_atom_site_label_1
_geom_bond_atom_site_label_2
_geom_bond_site_symmetry_1
_geom_bond_site_symmetry_2
S1 C8 1_555 1_555
S2 C22 1_555 1_555
S3 C36 1_555 1_555
O1 C2 1_555 1_555
O2 C16 1_555 1_555
O3 C30 1_555 1_555
N1 C1 1_555 1_555
N2 C2 1_555 1_555
N3 C16 1_555 1_555
N4 C30 1_555 1_555
C1 H1 1_555 1_555
H2 C1 1_555 1_555
C2 C1 1_555 1_555
C3 N2 1_555 1_555
C4 C3 1_555 1_555
H3 C4 1_555 1_555
C5 C4 1_555 1_555
H4 C5 1_555 1_555
C6 C5 1_555 1_555
H5 C6 1_555 1_555
C7 C6 1_555 1_555
H6 C7 1_555 1_555
C8 C3 1_555 1_555
C9 S1 1_555 1_555
C10 C9 1_555 1_555
H7 C10 1_555 1_555
C11 C10 1_555 1_555
H8 C11 1_555 1_555
C12 C11 1_555 1_555
H9 C12 1_555 1_555
C13 C12 1_555 1_555
H10 C13 1_555 1_555
C14 C9 1_555 1_555
H11 C14 1_555 1_555
C15 N1 1_555 1_555
H12 C15 1_555 1_555
H13 C15 1_555 1_555
C16 C15 1_555 1_555
C17 N3 1_555 1_555
C18 C17 1_555 1_555
H14 C18 1_555 1_555
C19 C18 1_555 1_555
H15 C19 1_555 1_555
C20 C19 1_555 1_555
H16 C20 1_555 1_555
C21 C20 1_555 1_555
H17 C21 1_555 1_555
C22 C17 1_555 1_555
C23 S2 1_555 1_555
C24 C23 1_555 1_555
H18 C24 1_555 1_555
C25 C24 1_555 1_555
H19 C25 1_555 1_555
C26 C25 1_555 1_555
H20 C26 1_555 1_555
C27 C26 1_555 1_555
H21 C27 1_555 1_555
C28 C23 1_555 1_555
H22 C28 1_555 1_555
C29 N1 1_555 1_555
H23 C29 1_555 1_555
H24 C29 1_555 1_555
C30 C29 1_555 1_555
C31 N4 1_555 1_555
C32 C31 1_555 1_555
H25 C32 1_555 1_555
C33 C32 1_555 1_555
H26 C33 1_555 1_555
C34 C33 1_555 1_555
H27 C34 1_555 1_555
C35 C34 1_555 1_555
H28 C35 1_555 1_555
C36 C31 1_555 1_555
C37 S3 1_555 1_555
C38 C37 1_555 1_555
H29 C38 1_555 1_555
C39 C38 1_555 1_555
H30 C39 1_555 1_555
C40 C39 1_555 1_555
H31 C40 1_555 1_555
C41 C40 1_555 1_555
H32 C41 1_555 1_555
C42 C37 1_555 1_555
H33 C42 1_555 1_555
H34 N2 1_555 1_555
H35 N3 1_555 1_555
H36 N4 1_555 1_555
C7 C8 1_555 1_555
C13 C14 1_555 1_555
C21 C22 1_555 1_555
C27 C28 1_555 1_555
C35 C36 1_555 1_555
C41 C42 1_555 1_555

#END
