
#######################################################################
#
#                 Cambridge Crystallographic Data Centre
#                                CCDC 
#
#######################################################################
#
# If this CIF has been generated from an entry in the Cambridge 
# Structural Database, then it will include bibliographic, chemical, 
# crystal, experimental, refinement or atomic coordinate data resulting 
# from the CCDC's data processing and validation procedures.
#
#######################################################################

data_ZATBII
_chemical_formula_moiety         'C29 H32 N8 4+,2(C8 H4 O4 2-)'
_chemical_name_systematic        
'(methanetetrayltetra-4,1-phenylene)tetrakis(aminomethaniminium) bis(terephthalate) unknown solvate'
_symmetry_cell_setting           orthorhombic
_symmetry_space_group_name_H-M   'F d d d'
_symmetry_Int_Tables_number      70
_space_group_name_Hall           '-F 2uv 2vw'
loop_
_symmetry_equiv_pos_site_id
_symmetry_equiv_pos_as_xyz
1 x,y,z
2 x,1/2+y,1/2+z
3 1/2+x,y,1/2+z
4 1/2+x,1/2+y,z
5 3/4-x,y,3/4-z
6 3/4-x,1/2+y,1/4-z
7 1/4-x,y,1/4-z
8 1/4-x,1/2+y,3/4-z
9 1/4-x,1/4-y,z
10 1/4-x,3/4-y,1/2+z
11 3/4-x,1/4-y,1/2+z
12 3/4-x,3/4-y,z
13 x,1/4-y,1/4-z
14 x,3/4-y,3/4-z
15 1/2+x,1/4-y,3/4-z
16 1/2+x,3/4-y,1/4-z
17 -x,-y,-z
18 -x,1/2-y,1/2-z
19 1/2-x,-y,1/2-z
20 1/2-x,1/2-y,-z
21 1/4+x,-y,1/4+z
22 1/4+x,1/2-y,3/4+z
23 3/4+x,-y,3/4+z
24 3/4+x,1/2-y,1/4+z
25 3/4+x,3/4+y,-z
26 3/4+x,1/4+y,1/2-z
27 1/4+x,3/4+y,1/2-z
28 1/4+x,1/4+y,-z
29 -x,3/4+y,3/4+z
30 -x,1/4+y,1/4+z
31 1/2-x,3/4+y,1/4+z
32 1/2-x,1/4+y,3/4+z
_cell_length_a                   14.7538(4)
_cell_length_b                   19.4911(5)
_cell_length_c                   34.2841(14)
_cell_angle_alpha                90
_cell_angle_beta                 90
_cell_angle_gamma                90
_cell_volume                     9859
_exptl_crystal_colour            colorless
_exptl_crystal_description       plate
_cell_formula_units_Z            8
loop_
_atom_site_label
_atom_site_type_symbol
_atom_site_fract_x
_atom_site_fract_y
_atom_site_fract_z
N1 N 0.34450(18) 0.79538(16) 0.51048(12)
N2 N 0.2819(3) 0.8124(2) 0.56956(16)
C1 C 0.3456(2) 0.78647(15) 0.54785(14)
C2 C 0.4205(2) 0.74719(14) 0.56624(10)
C3 C 0.4534(4) 0.76474(18) 0.60290(11)
C4 C 0.5209(4) 0.72734(17) 0.61977(10)
C5 C 0.5588(2) 0.67020(12) 0.60148(8)
C6 C 0.52607(18) 0.65308(12) 0.56510(8)
C7 C 0.45872(18) 0.69134(14) 0.54723(9)
C8 C 0.6250 0.6250 0.6250
H1 H 0.4280 0.8034 0.6162
H2 H 0.5410 0.7409 0.6444
H3 H 0.5515 0.6143 0.5514
H4 H 0.4375 0.6790 0.5221
H5 H 0.262(3) 0.7888(17) 0.5889(12)
H6 H 0.3899(18) 0.781(2) 0.4964(7)
H7 H 0.242(3) 0.840(3) 0.5591(8)
H8 H 0.2997(19) 0.818(2) 0.4998(7)
N1F N 0.90550(18) 0.79538(16) 0.73952(12)
N2F N 0.9681(3) 0.8124(2) 0.68044(16)
C1F C 0.9044(2) 0.78647(15) 0.70215(14)
C2F C 0.8295(2) 0.74719(14) 0.68376(10)
C3F C 0.7966(4) 0.76474(18) 0.64710(11)
C4F C 0.7291(4) 0.72734(17) 0.63023(10)
C5F C 0.6912(2) 0.67020(12) 0.64852(8)
C6F C 0.72393(18) 0.65308(12) 0.68490(8)
C7F C 0.79128(18) 0.69134(14) 0.70277(9)
H1F H 0.8220 0.8034 0.6338
H2F H 0.7090 0.7409 0.6056
H3F H 0.6985 0.6143 0.6986
H4F H 0.8125 0.6790 0.7279
H5F H 0.988(3) 0.7888(17) 0.6611(12)
H6F H 0.8601(18) 0.781(2) 0.7536(7)
H7F H 1.008(3) 0.840(3) 0.6909(8)
H8F H 0.9503(19) 0.818(2) 0.7502(7)
N1H N 0.90550(18) 0.45462(16) 0.51048(12)
N2H N 0.9681(3) 0.4376(2) 0.56956(16)
C1H C 0.9044(2) 0.46353(15) 0.54785(14)
C2H C 0.8295(2) 0.50281(14) 0.56624(10)
C3H C 0.7966(4) 0.48526(18) 0.60290(11)
C4H C 0.7291(4) 0.52266(17) 0.61977(10)
C5H C 0.6912(2) 0.57980(12) 0.60148(8)
C6H C 0.72393(18) 0.59692(12) 0.56510(8)
C7H C 0.79128(18) 0.55866(14) 0.54723(9)
H1H H 0.8220 0.4466 0.6162
H2H H 0.7090 0.5091 0.6444
H3H H 0.6985 0.6357 0.5514
H4H H 0.8125 0.5710 0.5221
H5H H 0.988(3) 0.4612(17) 0.5889(12)
H6H H 0.8601(18) 0.469(2) 0.4964(7)
H7H H 1.008(3) 0.410(3) 0.5591(8)
H8H H 0.9503(19) 0.432(2) 0.4998(7)
N1L N 0.34450(18) 0.45462(16) 0.73952(12)
N2L N 0.2819(3) 0.4376(2) 0.68044(16)
C1L C 0.3456(2) 0.46353(15) 0.70215(14)
C2L C 0.4205(2) 0.50281(14) 0.68376(10)
C3L C 0.4534(4) 0.48526(18) 0.64710(11)
C4L C 0.5209(4) 0.52266(17) 0.63023(10)
C5L C 0.5588(2) 0.57980(12) 0.64852(8)
C6L C 0.52607(18) 0.59692(12) 0.68490(8)
C7L C 0.45872(18) 0.55866(14) 0.70277(9)
H1L H 0.4280 0.4466 0.6338
H2L H 0.5410 0.5091 0.6056
H3L H 0.5515 0.6357 0.6986
H4L H 0.4375 0.5710 0.7279
H5L H 0.262(3) 0.4612(17) 0.6611(12)
H6L H 0.3899(18) 0.469(2) 0.7536(7)
H7L H 0.242(3) 0.410(3) 0.6909(8)
H8L H 0.2997(19) 0.432(2) 0.7502(7)
O1 O 0.3056(5) 0.6154(4) 0.4968(2)
O2 O 0.2639(3) 0.5274(3) 0.53603(13)
C9 C 0.4145(6) 0.5271(5) 0.5065(3)
C10 C 0.4708(8) 0.5562(4) 0.4787(2)
C11 C 0.5555(6) 0.5292(4) 0.47240(18)
C12 C 0.3221(4) 0.5596(3) 0.51321(17)
H9 H 0.4500 0.5937 0.4643
H10 H 0.5929 0.5498 0.4537
O1P O 0.6944(5) 0.3846(4) 0.5032(2)
O2P O 0.7361(3) 0.4726(3) 0.46397(13)
C9P C 0.5855(6) 0.4729(5) 0.4935(3)
C10P C 0.5292(8) 0.4438(4) 0.5213(2)
C11P C 0.4445(6) 0.4708(4) 0.52760(18)
C12P C 0.6779(4) 0.4404(3) 0.48679(17)
H9P H 0.5500 0.4063 0.5357
H10P H 0.4071 0.4502 0.5463
O3? O 0.3634(4) 0.6250(4) 0.4479(2)
C13? C 0.3541(5) 0.5916(5) 0.4771(3)
C14? C 0.5845(6) 0.5058(7) 0.4821(4)
C15? C 0.4281(10) 0.5423(8) 0.4896(5)
C16? C 0.5132(9) 0.5497(6) 0.4704(3)
O4? O 0.2824(6) 0.5936(4) 0.5003(4)
H11? H 0.6415 0.5096 0.4698
H12? H 0.5236 0.5815 0.4508
loop_
_geom_bond_atom_site_label_1
_geom_bond_atom_site_label_2
_geom_bond_site_symmetry_1
_geom_bond_site_symmetry_2
N1 C1 1_555 1_555
N2 C1 1_555 1_555
C1 C2 1_555 1_555
C2 C3 1_555 1_555
C3 C4 1_555 1_555
C4 C5 1_555 1_555
C5 C6 1_555 1_555
C6 C7 1_555 1_555
C7 C2 1_555 1_555
C8 C5 1_555 1_555
H1 C3 1_555 1_555
H2 C4 1_555 1_555
H3 C6 1_555 1_555
H4 C7 1_555 1_555
H5 N2 1_555 1_555
H6 N1 1_555 1_555
H7 N2 1_555 1_555
H8 N1 1_555 1_555
O1 C12 1_555 1_555
O2 C12 1_555 1_555
C9 C10 1_555 1_555
C10 C11 1_555 1_555
C11 H10 1_555 1_555
C12 C9 1_555 1_555
H9 C10 1_555 1_555
N1F C1F 1_555 1_555
N2F C1F 1_555 1_555
C1F C2F 1_555 1_555
C2F C3F 1_555 1_555
C3F C4F 1_555 1_555
C4F C5F 1_555 1_555
C5F C8 1_555 1_555
C6F C5F 1_555 1_555
C7F C2F 1_555 1_555
H1F C3F 1_555 1_555
H2F C4F 1_555 1_555
H3F C6F 1_555 1_555
H4F C7F 1_555 1_555
H5F N2F 1_555 1_555
H6F N1F 1_555 1_555
H7F N2F 1_555 1_555
H8F N1F 1_555 1_555
N1H C1H 1_555 1_555
N2H C1H 1_555 1_555
C1H C2H 1_555 1_555
C2H C3H 1_555 1_555
C3H C4H 1_555 1_555
C4H C5H 1_555 1_555
C5H C8 1_555 1_555
C6H C5H 1_555 1_555
C7H C2H 1_555 1_555
H1H C3H 1_555 1_555
H2H C4H 1_555 1_555
H3H C6H 1_555 1_555
H4H C7H 1_555 1_555
H5H N2H 1_555 1_555
H6H N1H 1_555 1_555
H7H N2H 1_555 1_555
H8H N1H 1_555 1_555
N1L C1L 1_555 1_555
N2L C1L 1_555 1_555
C1L C2L 1_555 1_555
C2L C3L 1_555 1_555
C3L C4L 1_555 1_555
C4L C5L 1_555 1_555
C5L C8 1_555 1_555
C6L C5L 1_555 1_555
C7L C2L 1_555 1_555
H1L C3L 1_555 1_555
H2L C4L 1_555 1_555
H3L C6L 1_555 1_555
H4L C7L 1_555 1_555
H5L N2L 1_555 1_555
H6L N1L 1_555 1_555
H7L N2L 1_555 1_555
H8L N1L 1_555 1_555
O1P C12P 1_555 1_555
O2P C12P 1_555 1_555
C9P C11 1_555 1_555
C10P C9P 1_555 1_555
C11P C9 1_555 1_555
C12P C9P 1_555 1_555
H9P C10P 1_555 1_555
H10P C11P 1_555 1_555
C6F C7F 1_555 1_555
C6H C7H 1_555 1_555
C6L C7L 1_555 1_555
C10P C11P 1_555 1_555

#END
