
#######################################################################
#
#                 Cambridge Crystallographic Data Centre
#                                CCDC 
#
#######################################################################
#
# If this CIF has been generated from an entry in the Cambridge 
# Structural Database, then it will include bibliographic, chemical, 
# crystal, experimental, refinement or atomic coordinate data resulting 
# from the CCDC's data processing and validation procedures.
#
#######################################################################

data_ZATBED
_chemical_formula_moiety         'C30 H28 N2'
_chemical_name_systematic        
2,2'-Diphenyl-1,1',2,2',3,3',4,4'-octahydro-1,1'-biisoquinoline
_symmetry_cell_setting           triclinic
_symmetry_space_group_name_H-M   'P -1'
_symmetry_Int_Tables_number      2
_space_group_name_Hall           '-P 1'
loop_
_symmetry_equiv_pos_site_id
_symmetry_equiv_pos_as_xyz
1 x,y,z
2 -x,-y,-z
_cell_length_a                   7.5553(7)
_cell_length_b                   10.2402(8)
_cell_length_c                   14.3883(15)
_cell_angle_alpha                94.865(8)
_cell_angle_beta                 90.429(8)
_cell_angle_gamma                101.756(7)
_cell_volume                     1085.56
_exptl_crystal_colour            colorless
_exptl_crystal_description       prism
_cell_formula_units_Z            2
loop_
_atom_site_label
_atom_site_type_symbol
_atom_site_fract_x
_atom_site_fract_y
_atom_site_fract_z
N1 N 0.4774(2) 0.39417(18) 0.38385(13)
C1 C 0.5322(3) 0.4440(2) 0.29902(15)
C2 C 0.6492(3) 0.5683(2) 0.29227(17)
C3 C 0.7057(3) 0.6119(2) 0.20734(17)
C4 C 0.6461(3) 0.5358(2) 0.12443(17)
C5 C 0.5276(3) 0.4154(2) 0.12981(16)
C6 C 0.4702(3) 0.3688(2) 0.21440(16)
C7 C 0.5639(3) 0.4592(2) 0.47238(15)
C8 C 0.6220(3) 0.3590(2) 0.53146(16)
C9 C 0.5087(3) 0.2336(2) 0.53528(16)
C10 C 0.3377(3) 0.2061(2) 0.47633(16)
C11 C 0.3773(3) 0.2547(2) 0.38016(16)
C12 C 0.5593(3) 0.1416(2) 0.59031(16)
C13 C 0.7208(4) 0.1736(3) 0.64151(18)
C14 C 0.8324(3) 0.2985(3) 0.63783(18)
C15 C 0.7844(3) 0.3913(3) 0.58289(17)
H1 H 0.69040 0.62370 0.34770
H2 H 0.78700 0.69560 0.20550
H3 H 0.68570 0.56580 0.06590
H4 H 0.48390 0.36250 0.07370
H5 H 0.38820 0.28520 0.21530
H6 H 0.67520 0.52430 0.45710
H7 H 0.24790 0.25240 0.50690
H8 H 0.28600 0.10870 0.47010
H9 H 0.44850 0.19620 0.34560
H10 H 0.26160 0.24660 0.34520
H11 H 0.48270 0.05610 0.59290
H12 H 0.75480 0.11030 0.67900
H13 H 0.94280 0.32060 0.67320
H14 H 0.86170 0.47650 0.58030
N1A N 0.5226(2) 0.60583(18) 0.61615(13)
C1A C 0.4678(3) 0.5560(2) 0.70098(15)
C2A C 0.3508(3) 0.4317(2) 0.70773(17)
C3A C 0.2943(3) 0.3881(2) 0.79266(17)
C4A C 0.3539(3) 0.4642(2) 0.87557(17)
C5A C 0.4724(3) 0.5846(2) 0.87019(16)
C6A C 0.5298(3) 0.6312(2) 0.78560(16)
C7A C 0.4361(3) 0.5408(2) 0.52762(15)
C8A C 0.3780(3) 0.6410(2) 0.46854(16)
C9A C 0.4913(3) 0.7664(2) 0.46472(16)
C10A C 0.6623(3) 0.7939(2) 0.52367(16)
C11A C 0.6227(3) 0.7453(2) 0.61984(16)
C12A C 0.4407(3) 0.8584(2) 0.40969(16)
C13A C 0.2792(4) 0.8264(3) 0.35849(18)
C14A C 0.1676(3) 0.7015(3) 0.36217(18)
C15A C 0.2156(3) 0.6087(3) 0.41711(17)
H1A H 0.30960 0.37630 0.65230
H2A H 0.21300 0.30440 0.79450
H3A H 0.31430 0.43420 0.93410
H4A H 0.51610 0.63750 0.92630
H5A H 0.61180 0.71480 0.78470
H6A H 0.32480 0.47570 0.54290
H7A H 0.75210 0.74760 0.49310
H8A H 0.71400 0.89130 0.52990
H9A H 0.55150 0.80380 0.65440
H10A H 0.73840 0.75340 0.65480
H11A H 0.51730 0.94390 0.40710
H12A H 0.24520 0.88970 0.32100
H13A H 0.05720 0.67940 0.32680
H14A H 0.13830 0.52350 0.41970
N2 N 0.0049(3) 0.14467(18) 0.09091(13)
C16 C -0.0761(3) 0.0290(2) 0.02723(16)
C17 C -0.2174(3) 0.0622(2) -0.03840(15)
C18 C -0.2231(3) 0.1938(2) -0.05335(16)
C19 C -0.0948(3) 0.3107(2) -0.00254(18)
C20 C 0.0607(3) 0.2668(2) 0.04440(17)
C21 C -0.3569(3) 0.2188(3) -0.11286(17)
C22 C -0.4840(3) 0.1148(3) -0.15682(17)
C23 C -0.4797(3) -0.0159(3) -0.14133(17)
C24 C -0.3473(3) -0.0409(2) -0.08232(16)
C25 C -0.0381(3) 0.1493(2) 0.18543(16)
C26 C -0.0442(3) 0.0350(2) 0.23389(16)
C27 C -0.0881(3) 0.0364(3) 0.32770(18)
C28 C -0.1249(3) 0.1514(3) 0.37544(18)
C29 C -0.1153(3) 0.2644(3) 0.32837(18)
C30 C -0.0725(3) 0.2649(2) 0.23517(17)
H15 H -0.13970 -0.04200 0.06590
H16 H -0.16160 0.35540 0.04510
H17 H -0.04640 0.37640 -0.04740
H18 H 0.15060 0.25230 -0.00310
H19 H 0.12060 0.33950 0.09090
H20 H -0.36070 0.30860 -0.12330
H21 H -0.57380 0.13320 -0.19750
H22 H -0.56680 -0.08780 -0.17090
H23 H -0.34520 -0.13080 -0.07160
H24 H -0.01800 -0.04390 0.20230
H25 H -0.09300 -0.04190 0.35940
H26 H -0.15610 0.15220 0.43930
H27 H -0.13860 0.34360 0.36080
H28 H -0.06630 0.34430 0.20450
N2A N -0.0049(3) -0.14467(18) -0.09091(13)
C16A C 0.0761(3) -0.0290(2) -0.02723(16)
C17A C 0.2174(3) -0.0622(2) 0.03840(15)
C18A C 0.2231(3) -0.1938(2) 0.05335(16)
C19A C 0.0948(3) -0.3107(2) 0.00254(18)
C20A C -0.0607(3) -0.2668(2) -0.04440(17)
C21A C 0.3569(3) -0.2188(3) 0.11286(17)
C22A C 0.4840(3) -0.1148(3) 0.15682(17)
C23A C 0.4797(3) 0.0159(3) 0.14133(17)
C24A C 0.3473(3) 0.0409(2) 0.08232(16)
C25A C 0.0381(3) -0.1493(2) -0.18543(16)
C26A C 0.0442(3) -0.0350(2) -0.23389(16)
C27A C 0.0881(3) -0.0364(3) -0.32770(18)
C28A C 0.1249(3) -0.1514(3) -0.37544(18)
C29A C 0.1153(3) -0.2644(3) -0.32837(18)
C30A C 0.0725(3) -0.2649(2) -0.23517(17)
H15A H 0.13970 0.04200 -0.06590
H16A H 0.16160 -0.35540 -0.04510
H17A H 0.04640 -0.37640 0.04740
H18A H -0.15060 -0.25230 0.00310
H19A H -0.12060 -0.33950 -0.09090
H20A H 0.36070 -0.30860 0.12330
H21A H 0.57380 -0.13320 0.19750
H22A H 0.56680 0.08780 0.17090
H23A H 0.34520 0.13080 0.07160
H24A H 0.01800 0.04390 -0.20230
H25A H 0.09300 0.04190 -0.35940
H26A H 0.15610 -0.15220 -0.43930
H27A H 0.13860 -0.34360 -0.36080
H28A H 0.06630 -0.34430 -0.20450
loop_
_geom_bond_atom_site_label_1
_geom_bond_atom_site_label_2
_geom_bond_site_symmetry_1
_geom_bond_site_symmetry_2
N1 C1 1_555 1_555
C1 C2 1_555 1_555
C2 C3 1_555 1_555
C3 C4 1_555 1_555
C4 C5 1_555 1_555
C5 C6 1_555 1_555
C6 C1 1_555 1_555
C7 N1 1_555 1_555
C8 C7 1_555 1_555
C9 C8 1_555 1_555
C10 C9 1_555 1_555
C11 N1 1_555 1_555
C12 C9 1_555 1_555
C13 C12 1_555 1_555
C14 C13 1_555 1_555
C15 C8 1_555 1_555
N2 C16 1_555 1_555
C16 C17 1_555 1_555
C17 C18 1_555 1_555
C18 C19 1_555 1_555
C19 C20 1_555 1_555
C20 N2 1_555 1_555
C21 C18 1_555 1_555
C22 C21 1_555 1_555
C23 C22 1_555 1_555
C24 C17 1_555 1_555
C25 N2 1_555 1_555
C26 C25 1_555 1_555
C27 C26 1_555 1_555
C28 C27 1_555 1_555
C29 C28 1_555 1_555
C30 C25 1_555 1_555
H1 C2 1_555 1_555
H2 C3 1_555 1_555
H3 C4 1_555 1_555
H4 C5 1_555 1_555
H5 C6 1_555 1_555
H6 C7 1_555 1_555
H7 C10 1_555 1_555
H8 C10 1_555 1_555
H9 C11 1_555 1_555
H10 C11 1_555 1_555
H11 C12 1_555 1_555
H12 C13 1_555 1_555
H13 C14 1_555 1_555
H14 C15 1_555 1_555
H15 C16 1_555 1_555
H16 C19 1_555 1_555
H17 C19 1_555 1_555
H18 C20 1_555 1_555
H19 C20 1_555 1_555
H20 C21 1_555 1_555
H21 C22 1_555 1_555
H22 C23 1_555 1_555
H23 C24 1_555 1_555
H24 C26 1_555 1_555
H25 C27 1_555 1_555
H26 C28 1_555 1_555
H27 C29 1_555 1_555
H28 C30 1_555 1_555
N1A C1A 1_555 1_555
C1A C2A 1_555 1_555
C2A C3A 1_555 1_555
C3A C4A 1_555 1_555
C4A C5A 1_555 1_555
C5A C6A 1_555 1_555
C6A C1A 1_555 1_555
C7A C7 1_555 1_555
C8A C7A 1_555 1_555
C9A C8A 1_555 1_555
C10A C9A 1_555 1_555
C11A N1A 1_555 1_555
C12A C9A 1_555 1_555
C13A C12A 1_555 1_555
C14A C13A 1_555 1_555
C15A C8A 1_555 1_555
N2A C16A 1_555 1_555
C16A C16 1_555 1_555
C17A C16A 1_555 1_555
C18A C17A 1_555 1_555
C19A C18A 1_555 1_555
C20A N2A 1_555 1_555
C21A C18A 1_555 1_555
C22A C21A 1_555 1_555
C23A C22A 1_555 1_555
C24A C17A 1_555 1_555
C25A N2A 1_555 1_555
C26A C25A 1_555 1_555
C27A C26A 1_555 1_555
C28A C27A 1_555 1_555
C29A C28A 1_555 1_555
C30A C25A 1_555 1_555
H1A C2A 1_555 1_555
H2A C3A 1_555 1_555
H3A C4A 1_555 1_555
H4A C5A 1_555 1_555
H5A C6A 1_555 1_555
H6A C7A 1_555 1_555
H7A C10A 1_555 1_555
H8A C10A 1_555 1_555
H9A C11A 1_555 1_555
H10A C11A 1_555 1_555
H11A C12A 1_555 1_555
H12A C13A 1_555 1_555
H13A C14A 1_555 1_555
H14A C15A 1_555 1_555
H15A C16A 1_555 1_555
H16A C19A 1_555 1_555
H17A C19A 1_555 1_555
H18A C20A 1_555 1_555
H19A C20A 1_555 1_555
H20A C21A 1_555 1_555
H21A C22A 1_555 1_555
H22A C23A 1_555 1_555
H23A C24A 1_555 1_555
H24A C26A 1_555 1_555
H25A C27A 1_555 1_555
H26A C28A 1_555 1_555
H27A C29A 1_555 1_555
H28A C30A 1_555 1_555
C10 C11 1_555 1_555
C14 C15 1_555 1_555
C23 C24 1_555 1_555
C29 C30 1_555 1_555
N1A C7A 1_555 1_555
C10A C11A 1_555 1_555
C14A C15A 1_555 1_555
C19A C20A 1_555 1_555
C23A C24A 1_555 1_555
C29A C30A 1_555 1_555

#END
