
#######################################################################
#
#                 Cambridge Crystallographic Data Centre
#                                CCDC 
#
#######################################################################
#
# If this CIF has been generated from an entry in the Cambridge 
# Structural Database, then it will include bibliographic, chemical, 
# crystal, experimental, refinement or atomic coordinate data resulting 
# from the CCDC's data processing and validation procedures.
#
#######################################################################

data_ZATJEM
_chemical_formula_moiety         'C28 H20 Br1 F1 N4 O4,0.5(H2 O1)'
_chemical_name_systematic        
"1-benzyl-5'-(3-bromophenyl)-5-fluoro-3',3a',3b',6a'-tetrahydro-1'H-spiro[indole-3,7'-pyrrolo[3',4':3,4]pyrrolo[1,2-b]pyrazole]-2,2',4',6'(1H,5'H)-tetrone hemihydrate"
_symmetry_cell_setting           monoclinic
_symmetry_space_group_name_H-M   'P 21/c'
_symmetry_Int_Tables_number      14
_space_group_name_Hall           '-P 2ybc'
loop_
_symmetry_equiv_pos_site_id
_symmetry_equiv_pos_as_xyz
1 x,y,z
2 -x,1/2+y,1/2-z
3 -x,-y,-z
4 x,1/2-y,1/2+z
_cell_length_a                   12.8025(11)
_cell_length_b                   25.114(2)
_cell_length_c                   15.6410(14)
_cell_angle_alpha                90
_cell_angle_beta                 105.9650(10)
_cell_angle_gamma                90
_cell_volume                     4834.96
_exptl_crystal_colour            colorless
_exptl_crystal_description       prism
_cell_formula_units_Z            8
loop_
_atom_site_label
_atom_site_type_symbol
_atom_site_fract_x
_atom_site_fract_y
_atom_site_fract_z
Br1 Br 0.82001(3) 0.413715(13) 0.73152(2)
F1 F 0.63529(15) 0.25414(8) 0.20716(15)
O1 O 1.14491(16) 0.37335(8) 0.21254(15)
O2 O 0.72064(17) 0.50910(8) 0.18943(14)
O3 O 0.9122(2) 0.33173(9) 0.42429(15)
O4 O 0.92740(19) 0.51220(8) 0.40111(15)
N1 N 0.9002(2) 0.42309(10) 0.42058(16)
N2 N 1.02933(19) 0.30399(10) 0.15561(16)
C1 C 0.7752(3) 0.42501(12) 0.6070(2)
C2 C 0.8528(2) 0.41935(11) 0.56058(19)
H1 H 0.9253 0.4094 0.5902
C3 C 0.8209(2) 0.42867(12) 0.4697(2)
C4 C 0.9366(2) 0.37417(11) 0.39874(19)
C5 C 1.0115(2) 0.38409(11) 0.34015(19)
H2 H 1.0838 0.3670 0.3662
C6 C 0.9644(2) 0.36724(11) 0.24089(19)
C7 C 1.0592(2) 0.34967(11) 0.20224(19)
C8 C 1.0986(2) 0.27481(12) 0.11096(19)
H3 H 1.1542 0.2993 0.1001
H4 H 1.0537 0.2619 0.0526
C9 C 1.1547(2) 0.22776(11) 0.16573(19)
C10 C 1.2364(2) 0.23662(12) 0.2439(2)
H5 H 1.2568 0.2720 0.2625
C11 C 1.2885(3) 0.19417(13) 0.2950(2)
H6 H 1.3439 0.2007 0.3484
C12 C 1.2600(3) 0.14237(13) 0.2682(2)
H7 H 1.2954 0.1133 0.3032
C13 C 0.6687(3) 0.43910(13) 0.5644(2)
H8 H 0.6169 0.4427 0.5974
C14 C 0.6388(3) 0.44782(16) 0.4735(2)
H9 H 0.5659 0.4571 0.4437
C15 C 0.7158(3) 0.44307(14) 0.4256(2)
H10 H 0.6960 0.4497 0.3634
C16 C 0.9467(2) 0.46635(12) 0.3886(2)
C17 C 1.0234(2) 0.44509(11) 0.3375(2)
H11 H 1.0999 0.4559 0.3674
C18 C 0.8863(2) 0.32103(11) 0.21418(18)
C19 C 0.9270(2) 0.28583(11) 0.16184(19)
C20 C 1.1793(3) 0.13324(13) 0.1900(3)
H12 H 1.1596 0.0978 0.1713
C21 C 1.1269(3) 0.17573(12) 0.1386(2)
H13 H 1.0720 0.1691 0.0849
C22 C 0.8723(2) 0.24071(12) 0.1237(2)
H14 H 0.9015 0.2176 0.0880
C23 C 0.7715(2) 0.23017(12) 0.1398(2)
H15 H 0.7309 0.1994 0.1153
C24 C 0.7324(2) 0.26513(12) 0.1916(2)
C25 C 0.7870(2) 0.31076(11) 0.22942(19)
H16 H 0.7572 0.3340 0.2645
N3 N 0.92237(19) 0.41617(9) 0.18941(17)
C26 C 0.9922(2) 0.46076(11) 0.2375(2)
H17 H 1.0588 0.4645 0.2164
C27 C 0.9183(2) 0.50875(12) 0.2092(2)
H18 H 0.9347 0.5369 0.2554
H19 H 0.9249 0.5238 0.1525
C28 C 0.8069(2) 0.48522(12) 0.19872(19)
N4 N 0.81699(19) 0.43135(9) 0.20062(16)
H20 H 0.7672 0.4089 0.2076
Br2 Br 0.31458(4) 0.206474(16) 1.02032(2)
F2 F 0.61626(17) -0.08707(9) 0.87648(14)
O5 O 0.62437(17) 0.11563(9) 0.59877(15)
O6 O 0.3616(2) 0.03638(9) 0.81678(15)
O7 O 0.19077(18) -0.01805(9) 0.49137(14)
N5 N 0.38784(19) 0.11237(9) 0.74344(15)
N6 N 0.2825(2) -0.08898(10) 0.57092(17)
N7 N 0.41538(19) 0.02145(9) 0.55993(16)
N8 N 0.51606(19) 0.04518(9) 0.61380(16)
H21 H 0.5570 0.0315 0.6636
O8 O 0.3757(2) 0.17736(9) 0.63774(15)
C29 C 0.5693(3) 0.20330(17) 0.9047(3)
H22 H 0.6384 0.2198 0.9144
C30 C 0.4065(3) 0.18953(13) 0.9473(2)
C31 C 0.3684(3) 0.15459(12) 0.87758(19)
H23 H 0.3004 0.1373 0.8694
C32 C 0.4315(2) 0.14515(12) 0.81937(19)
C33 C 0.3515(2) 0.06064(12) 0.74848(19)
C34 C 0.2958(2) 0.04184(12) 0.65431(18)
H24 H 0.2191 0.0314 0.6497
C35 C 0.3537(2) -0.00365(11) 0.61709(18)
C36 C 0.2643(2) -0.03650(12) 0.55056(19)
C37 C 0.2148(3) -0.13152(13) 0.5192(2)
H25 H 0.2611 -0.1629 0.5175
H26 H 0.1840 -0.1191 0.4573
C38 C 0.1231(2) -0.14818(11) 0.55681(18)
C39 C 0.1227(2) -0.19742(12) 0.5966(2)
H27 H 0.1811 -0.2214 0.6004
C40 C 0.0376(3) -0.21210(12) 0.6312(2)
H28 H 0.0382 -0.2460 0.6584
C41 C -0.0473(2) -0.17757(13) 0.6259(2)
H29 H -0.1047 -0.1874 0.6504
C42 C 0.3583(2) 0.13257(12) 0.65689(19)
C43 C 0.2974(2) 0.08964(12) 0.59408(19)
H30 H 0.2214 0.1017 0.5651
C44 C 0.3520(2) 0.07019(12) 0.52188(18)
H31 H 0.2957 0.0614 0.4653
C45 C 0.5379(2) 0.09119(11) 0.57646(19)
C46 C 0.4384(2) 0.10643(12) 0.50357(19)
H32 H 0.4486 0.0995 0.4441
H33 H 0.4198 0.1444 0.5078
C47 C 0.4156(2) -0.04624(12) 0.67842(19)
C48 C 0.3700(2) -0.09574(12) 0.6477(2)
C49 C -0.0492(2) -0.12842(13) 0.5848(2)
H34 H -0.1085 -0.1049 0.5805
C50 C 0.0350(2) -0.11354(12) 0.5502(2)
H35 H 0.0332 -0.0799 0.5220
C51 C 0.4070(3) -0.14259(13) 0.6920(2)
H36 H 0.3761 -0.1759 0.6699
C52 C 0.4915(3) -0.13930(14) 0.7704(2)
H37 H 0.5186 -0.1706 0.8031
C53 C 0.5352(3) -0.09023(14) 0.8000(2)
C54 C 0.5000(2) -0.04335(12) 0.7550(2)
H38 H 0.5329 -0.0102 0.7762
C55 C 0.5322(3) 0.16912(15) 0.8323(2)
H39 H 0.5751 0.1624 0.7927
C56 C 0.5074(3) 0.21349(15) 0.9621(2)
H40 H 0.5336 0.2367 1.0113
O9 O 0.1688(8) 0.4185(4) 0.5035(6)
loop_
_geom_bond_atom_site_label_1
_geom_bond_atom_site_label_2
_geom_bond_site_symmetry_1
_geom_bond_site_symmetry_2
Br1 C1 1_555 1_555
F1 C24 1_555 1_555
O1 C7 1_555 1_555
O2 C28 1_555 1_555
O3 C4 1_555 1_555
O4 C16 1_555 1_555
N1 C3 1_555 1_555
N2 C7 1_555 1_555
C1 C2 1_555 1_555
C2 H1 1_555 1_555
C3 C2 1_555 1_555
C4 N1 1_555 1_555
C5 C4 1_555 1_555
H2 C5 1_555 1_555
C6 C5 1_555 1_555
C7 C6 1_555 1_555
C8 N2 1_555 1_555
H3 C8 1_555 1_555
H4 C8 1_555 1_555
C9 C8 1_555 1_555
C10 C9 1_555 1_555
H5 C10 1_555 1_555
C11 C10 1_555 1_555
H6 C11 1_555 1_555
C12 C11 1_555 1_555
H7 C12 1_555 1_555
C13 C1 1_555 1_555
H8 C13 1_555 1_555
C14 C13 1_555 1_555
H9 C14 1_555 1_555
C15 C3 1_555 1_555
H10 C15 1_555 1_555
C16 N1 1_555 1_555
C17 C5 1_555 1_555
H11 C17 1_555 1_555
C18 C6 1_555 1_555
C19 N2 1_555 1_555
C20 C12 1_555 1_555
H12 C20 1_555 1_555
C21 C9 1_555 1_555
H13 C21 1_555 1_555
C22 C19 1_555 1_555
H14 C22 1_555 1_555
C23 C22 1_555 1_555
H15 C23 1_555 1_555
C24 C23 1_555 1_555
C25 C18 1_555 1_555
H16 C25 1_555 1_555
N3 C6 1_555 1_555
C26 C17 1_555 1_555
H17 C26 1_555 1_555
C27 C26 1_555 1_555
H18 C27 1_555 1_555
H19 C27 1_555 1_555
C28 C27 1_555 1_555
N4 N3 1_555 1_555
H20 N4 1_555 1_555
Br2 C30 1_555 1_555
F2 C53 1_555 1_555
O5 C45 1_555 1_555
O6 C33 1_555 1_555
O7 C36 1_555 1_555
N5 C32 1_555 1_555
N6 C36 1_555 1_555
N7 N8 1_555 1_555
N8 H21 1_555 1_555
O8 C42 1_555 1_555
C29 H22 1_555 1_555
C30 C31 1_555 1_555
C31 H23 1_555 1_555
C32 C31 1_555 1_555
C33 N5 1_555 1_555
C34 C33 1_555 1_555
H24 C34 1_555 1_555
C35 N7 1_555 1_555
C36 C35 1_555 1_555
C37 N6 1_555 1_555
H25 C37 1_555 1_555
H26 C37 1_555 1_555
C38 C37 1_555 1_555
C39 C38 1_555 1_555
H27 C39 1_555 1_555
C40 C39 1_555 1_555
H28 C40 1_555 1_555
C41 C40 1_555 1_555
H29 C41 1_555 1_555
C42 N5 1_555 1_555
C43 C34 1_555 1_555
H30 C43 1_555 1_555
C44 N7 1_555 1_555
H31 C44 1_555 1_555
C45 N8 1_555 1_555
C46 C44 1_555 1_555
H32 C46 1_555 1_555
H33 C46 1_555 1_555
C47 C35 1_555 1_555
C48 N6 1_555 1_555
C49 C41 1_555 1_555
H34 C49 1_555 1_555
C50 C38 1_555 1_555
H35 C50 1_555 1_555
C51 C48 1_555 1_555
H36 C51 1_555 1_555
C52 C51 1_555 1_555
H37 C52 1_555 1_555
C53 C52 1_555 1_555
C54 C47 1_555 1_555
H38 C54 1_555 1_555
C55 C29 1_555 1_555
H39 C55 1_555 1_555
C56 C29 1_555 1_555
H40 C56 1_555 1_555
C14 C15 1_555 1_555
C16 C17 1_555 1_555
C18 C19 1_555 1_555
C20 C21 1_555 1_555
C24 C25 1_555 1_555
N3 C26 1_555 1_555
C28 N4 1_555 1_555
C30 C56 1_555 1_555
C32 C55 1_555 1_555
C34 C35 1_555 1_555
C42 C43 1_555 1_555
C43 C44 1_555 1_555
C45 C46 1_555 1_555
C47 C48 1_555 1_555
C49 C50 1_555 1_555
C53 C54 1_555 1_555

#END
