
#######################################################################
#
#                 Cambridge Crystallographic Data Centre
#                                CCDC 
#
#######################################################################
#
# If this CIF has been generated from an entry in the Cambridge 
# Structural Database, then it will include bibliographic, chemical, 
# crystal, experimental, refinement or atomic coordinate data resulting 
# from the CCDC's data processing and validation procedures.
#
#######################################################################

data_ZATSIY
_chemical_formula_moiety         'C5 H18 N3 O1 3+,3(Cl1 1-)'
_chemical_name_systematic        
'2-(Ammoniomethyl)-2-(hydroxymethyl)propane-1,3-diaminium trichloride'
_symmetry_cell_setting           orthorhombic
_symmetry_space_group_name_H-M   'P b c a'
_symmetry_Int_Tables_number      61
_space_group_name_Hall           '-P 2ac 2ab'
loop_
_symmetry_equiv_pos_site_id
_symmetry_equiv_pos_as_xyz
1 x,y,z
2 1/2-x,-y,1/2+z
3 -x,1/2+y,1/2-z
4 1/2+x,1/2-y,-z
5 -x,-y,-z
6 1/2+x,y,1/2-z
7 x,1/2-y,1/2+z
8 1/2-x,1/2+y,z
_cell_length_a                   9.4620(19)
_cell_length_b                   12.156(2)
_cell_length_c                   18.508(4)
_cell_angle_alpha                90
_cell_angle_beta                 90
_cell_angle_gamma                90
_cell_volume                     2128.79
_exptl_crystal_colour            white
_exptl_crystal_description       irregular
_cell_formula_units_Z            8
loop_
_atom_site_label
_atom_site_type_symbol
_atom_site_fract_x
_atom_site_fract_y
_atom_site_fract_z
Cl1 Cl 0.06450(6) 0.77225(6) 0.33788(3)
Cl2 Cl 0.74297(7) 0.01522(5) 0.27312(4)
Cl3 Cl 0.78188(6) 0.00739(5) 0.49531(3)
C1 C 0.5091(2) 0.76006(19) 0.39027(11)
C2 C 0.6711(2) 0.75705(19) 0.39048(12)
H1 H 0.7058 0.8172 0.4200
H2 H 0.7018 0.6889 0.4128
C3 C 0.4424(2) 0.6677(2) 0.34451(12)
H3 H 0.3408 0.6785 0.3438
H4 H 0.4760 0.6752 0.2952
C4 C 0.4507(2) 0.8657(2) 0.35559(12)
H5 H 0.4837 0.8696 0.3060
H6 H 0.3483 0.8610 0.3544
C5 C 0.4576(3) 0.74799(19) 0.46889(13)
H7 H 0.3551 0.7491 0.4698
H8 H 0.4887 0.6777 0.4880
N1 N 0.4717(2) 0.55325(18) 0.36925(11)
H9 H 0.5646 0.5436 0.3735
H10 H 0.4374 0.5057 0.3372
H11 H 0.4306 0.5421 0.4119
N2 N 0.7361(2) 0.76537(16) 0.31719(12)
H12 H 0.7113 0.7071 0.2910
H13 H 0.8297 0.7676 0.3214
H14 H 0.7058 0.8264 0.2955
N3 N 0.4913(3) 0.96772(19) 0.39312(12)
H15 H 0.4378 0.9762 0.4323
H16 H 0.4788 1.0248 0.3637
H17 H 0.5817 0.9638 0.4061
O1 O 0.5106(2) 0.83422(18) 0.51325(10)
H18 H 0.5339 0.8091 0.5526
loop_
_geom_bond_atom_site_label_1
_geom_bond_atom_site_label_2
_geom_bond_site_symmetry_1
_geom_bond_site_symmetry_2
C1 C2 1_555 1_555
C2 H1 1_555 1_555
H2 C2 1_555 1_555
C3 C1 1_555 1_555
H3 C3 1_555 1_555
H4 C3 1_555 1_555
C4 C1 1_555 1_555
H5 C4 1_555 1_555
H6 C4 1_555 1_555
C5 C1 1_555 1_555
H7 C5 1_555 1_555
H8 C5 1_555 1_555
N1 C3 1_555 1_555
H9 N1 1_555 1_555
H10 N1 1_555 1_555
H11 N1 1_555 1_555
N2 C2 1_555 1_555
H12 N2 1_555 1_555
H13 N2 1_555 1_555
H14 N2 1_555 1_555
N3 C4 1_555 1_555
H15 N3 1_555 1_555
H16 N3 1_555 1_555
H17 N3 1_555 1_555
O1 C5 1_555 1_555
H18 O1 1_555 1_555

#END
