
#######################################################################
#
#                 Cambridge Crystallographic Data Centre
#                                CCDC 
#
#######################################################################
#
# If this CIF has been generated from an entry in the Cambridge 
# Structural Database, then it will include bibliographic, chemical, 
# crystal, experimental, refinement or atomic coordinate data resulting 
# from the CCDC's data processing and validation procedures.
#
#######################################################################

data_ZATTOF
_chemical_formula_moiety         'C23 H24 N6 O1,0.5(H2 O1),0.5(C4 H10 O1)'
_chemical_name_systematic        
'(ae2)-(2,4,9-tris(pyridin-4-yl)-1,3,5-triazatricyclo[3.3.1.1^3,7^]dec-7-yl)methanol diethyl ether solvate hemihydrate'
_symmetry_cell_setting           triclinic
_symmetry_space_group_name_H-M   'P -1'
_symmetry_Int_Tables_number      2
_space_group_name_Hall           '-P 1'
loop_
_symmetry_equiv_pos_site_id
_symmetry_equiv_pos_as_xyz
1 x,y,z
2 -x,-y,-z
_cell_length_a                   11.0543(6)
_cell_length_b                   13.9730(12)
_cell_length_c                   15.4963(13)
_cell_angle_alpha                78.685(4)
_cell_angle_beta                 84.184(4)
_cell_angle_gamma                83.431(5)
_cell_volume                     2323.99
_exptl_crystal_colour            colorless
_exptl_crystal_description       platelet
_cell_formula_units_Z            4
loop_
_atom_site_label
_atom_site_type_symbol
_atom_site_fract_x
_atom_site_fract_y
_atom_site_fract_z
O2 O 0.7061(4) 0.6261(3) 0.8429(3)
N7 N 0.76847(19) 0.83810(15) 1.00117(14)
N8 N 0.77115(18) 0.96557(15) 0.86462(14)
N9 N 0.57829(18) 0.89668(15) 0.92768(14)
N10 N 0.85815(19) 1.14392(16) 1.10659(14)
N11 N 0.4496(2) 1.15026(18) 0.66019(16)
N12 N 0.4413(2) 0.64344(18) 1.19221(16)
C24 C 0.8253(2) 0.92562(18) 0.95016(16)
H25 H 0.9105 0.9027 0.9348
C25 C 0.6374(2) 0.98515(18) 0.88341(17)
H26 H 0.6262 1.0300 0.9255
C26 C 0.6346(2) 0.86443(19) 1.01247(16)
H27 H 0.6231 0.9209 1.0422
C27 C 0.7937(2) 0.7601(2) 0.94682(18)
H28 H 0.7573 0.7017 0.9777
H29 H 0.8813 0.7436 0.9387
C28 C 0.7965(2) 0.8888(2) 0.80958(18)
H30 H 0.8841 0.8755 0.7980
H31 H 0.7616 0.9122 0.7534
C29 C 0.6034(2) 0.81962(19) 0.87290(18)
H32 H 0.5680 0.8426 0.8169
H33 H 0.5657 0.7614 0.9027
C30 C 0.7421(2) 0.7937(2) 0.85620(18)
C31 C 0.7698(3) 0.7140(2) 0.8002(2)
C32 C 0.8305(2) 1.00268(19) 1.00516(16)
C33 C 0.8397(2) 0.9770(2) 1.09630(17)
H34 H 0.8367 0.9121 1.1248
C34 C 0.8534(2) 1.0485(2) 1.14357(17)
H35 H 0.8596 1.0299 1.2041
C35 C 0.8507(2) 1.16845(19) 1.01877(17)
H36 H 0.8546 1.2338 0.9918
C36 C 0.8374(2) 1.10128(19) 0.96688(17)
H37 H 0.8331 1.1216 0.9063
C37 C 0.5746(2) 1.03870(19) 0.80239(17)
C38 C 0.6297(2) 1.1088(2) 0.74025(18)
H38 H 0.7100 1.1201 0.7446
C39 C 0.5655(3) 1.1625(2) 0.67111(18)
H39 H 0.6048 1.2093 0.6302
C40 C 0.3979(3) 1.0810(2) 0.72001(19)
H40 H 0.3185 1.0698 0.7131
C41 C 0.4543(2) 1.0247(2) 0.79147(18)
H41 H 0.4129 0.9784 0.8314
C42 C 0.5695(2) 0.7840(2) 1.07262(17)
C43 C 0.4496(2) 0.77009(19) 1.06189(17)
H42 H 0.4097 0.8071 1.0145
C44 C 0.3901(3) 0.7003(2) 1.12269(18)
H43 H 0.3098 0.6926 1.1146
C45 C 0.5568(3) 0.6581(2) 1.2013(2)
H44 H 0.5950 0.6196 1.2488
C46 C 0.6226(3) 0.7261(2) 1.1453(2)
H45 H 0.7020 0.7334 1.1560
O5 O 0.5093(5) 0.1575(4) 0.3292(4)
O1 O 0.09947(18) 0.73528(15) 0.78043(13)
H1 H 0.1134 0.7665 0.8238
N1 N 0.24112(18) 0.64874(15) 0.49421(14)
N2 N 0.24070(18) 0.51756(16) 0.62743(13)
N3 N 0.04611(18) 0.59649(15) 0.57076(13)
N4 N 0.4190(2) 0.33872(17) 0.37942(15)
N5 N -0.0874(2) 0.35080(19) 0.84279(16)
N6 N -0.0894(2) 0.86186(19) 0.31553(17)
C1 C 0.3055(2) 0.55754(18) 0.54196(16)
H2 H 0.3827 0.5764 0.5564
C2 C 0.1136(2) 0.50450(18) 0.61169(16)
H3 H 0.1203 0.4604 0.5691
C3 C 0.1142(2) 0.62866(18) 0.48488(16)
H4 H 0.1216 0.5734 0.4537
C4 C 0.2379(2) 0.72441(18) 0.55024(16)
H5 H 0.1952 0.7851 0.5217
H6 H 0.3207 0.7371 0.5566
C5 C 0.2374(2) 0.59162(19) 0.68485(16)
H7 H 0.3202 0.6005 0.6951
H8 H 0.1945 0.5682 0.7415
C6 C 0.0438(2) 0.67136(19) 0.62737(17)
H9 H 0.0001 0.6490 0.6839
H10 H 0.0004 0.7321 0.5996
C7 C 0.1733(2) 0.69036(19) 0.64210(16)
C8 C 0.1699(2) 0.7668(2) 0.69947(18)
H11 H 0.2523 0.7750 0.7113
H12 H 0.1335 0.8293 0.6694
C9 C 0.3404(2) 0.48089(19) 0.48455(16)
C10 C 0.3613(2) 0.5071(2) 0.39315(17)
H13 H 0.3498 0.5724 0.3655
C11 C 0.3992(2) 0.4347(2) 0.34389(18)
H14 H 0.4118 0.4535 0.2829
C12 C 0.4007(2) 0.3147(2) 0.46761(19)
H15 H 0.4142 0.2490 0.4938
C13 C 0.3627(2) 0.38209(19) 0.52207(17)
H16 H 0.3522 0.3615 0.5829
C14 C 0.0437(2) 0.45398(19) 0.69426(17)
C15 C 0.1005(3) 0.3773(2) 0.75231(19)
H17 H 0.1836 0.3587 0.7428
C16 C 0.0330(3) 0.3291(2) 0.8240(2)
H18 H 0.0733 0.2782 0.8618
C17 C -0.1411(2) 0.4243(2) 0.78613(18)
H19 H -0.2242 0.4414 0.7971
C18 C -0.0809(2) 0.47674(19) 0.71227(17)
H20 H -0.1235 0.5268 0.6750
C19 C 0.0441(2) 0.71337(18) 0.42782(17)
C20 C -0.0810(2) 0.73522(19) 0.44455(17)
H21 H -0.1228 0.7007 0.4939
C21 C -0.1425(2) 0.8084(2) 0.38742(19)
H22 H -0.2263 0.8213 0.3996
C22 C 0.0313(3) 0.8401(2) 0.3001(2)
H23 H 0.0709 0.8761 0.2506
C23 C 0.1005(2) 0.7675(2) 0.35311(18)
H24 H 0.1838 0.7551 0.3388
O3? O 1.1210(5) 0.9837(4) 0.5230(3)
C47? C 1.0000 1.0000 0.5000
C48? C 0.9090(8) 0.9750(6) 0.5772(6)
C49? C 1.2059(8) 1.0170(6) 0.4521(5)
C50? C 1.3361(8) 0.9992(7) 0.4860(6)
O4? O 0.7995(5) 0.5067(4) 1.0001(3)
C51? C 0.9196(10) 0.4670(7) 1.0237(6)
C52? C 1.0111(11) 0.5130(7) 0.9601(7)
C53? C 0.7000(9) 0.4920(9) 1.0644(6)
C54? C 0.6541(8) 0.3976(7) 1.0892(6)
O6? O 0.7468(4) 0.7539(3) 0.7040(3)
loop_
_geom_bond_atom_site_label_1
_geom_bond_atom_site_label_2
_geom_bond_site_symmetry_1
_geom_bond_site_symmetry_2
O1 H1 1_555 1_555
N1 C1 1_555 1_555
N2 C1 1_555 1_555
N3 C2 1_555 1_555
N4 C11 1_555 1_555
N5 C16 1_555 1_555
N6 C21 1_555 1_555
C1 H2 1_555 1_555
C2 N2 1_555 1_555
H3 C2 1_555 1_555
C3 N1 1_555 1_555
H4 C3 1_555 1_555
C4 N1 1_555 1_555
H5 C4 1_555 1_555
H6 C4 1_555 1_555
C5 N2 1_555 1_555
H7 C5 1_555 1_555
H8 C5 1_555 1_555
C6 N3 1_555 1_555
H9 C6 1_555 1_555
H10 C6 1_555 1_555
C7 C4 1_555 1_555
C8 O1 1_555 1_555
H11 C8 1_555 1_555
H12 C8 1_555 1_555
C9 C1 1_555 1_555
C10 C9 1_555 1_555
H13 C10 1_555 1_555
C11 C10 1_555 1_555
H14 C11 1_555 1_555
C12 N4 1_555 1_555
H15 C12 1_555 1_555
C13 C9 1_555 1_555
H16 C13 1_555 1_555
C14 C2 1_555 1_555
C15 C14 1_555 1_555
H17 C15 1_555 1_555
C16 C15 1_555 1_555
H18 C16 1_555 1_555
C17 N5 1_555 1_555
H19 C17 1_555 1_555
C18 C14 1_555 1_555
H20 C18 1_555 1_555
C19 C3 1_555 1_555
C20 C19 1_555 1_555
H21 C20 1_555 1_555
C21 C20 1_555 1_555
H22 C21 1_555 1_555
C22 N6 1_555 1_555
H23 C22 1_555 1_555
C23 C19 1_555 1_555
H24 C23 1_555 1_555
O2 C31 1_555 1_555
N7 C24 1_555 1_555
N8 C24 1_555 1_555
N9 C25 1_555 1_555
N10 C34 1_555 1_555
N11 C39 1_555 1_555
N12 C44 1_555 1_555
C24 H25 1_555 1_555
C25 N8 1_555 1_555
H26 C25 1_555 1_555
C26 N7 1_555 1_555
H27 C26 1_555 1_555
C27 N7 1_555 1_555
H28 C27 1_555 1_555
H29 C27 1_555 1_555
C28 N8 1_555 1_555
H30 C28 1_555 1_555
H31 C28 1_555 1_555
C29 N9 1_555 1_555
H32 C29 1_555 1_555
H33 C29 1_555 1_555
C30 C27 1_555 1_555
C31 C30 1_555 1_555
C32 C24 1_555 1_555
C33 C32 1_555 1_555
H34 C33 1_555 1_555
C34 C33 1_555 1_555
H35 C34 1_555 1_555
C35 N10 1_555 1_555
H36 C35 1_555 1_555
C36 C32 1_555 1_555
H37 C36 1_555 1_555
C37 C25 1_555 1_555
C38 C37 1_555 1_555
H38 C38 1_555 1_555
C39 C38 1_555 1_555
H39 C39 1_555 1_555
C40 N11 1_555 1_555
H40 C40 1_555 1_555
C41 C37 1_555 1_555
H41 C41 1_555 1_555
C42 C26 1_555 1_555
C43 C42 1_555 1_555
H42 C43 1_555 1_555
C44 C43 1_555 1_555
H43 C44 1_555 1_555
C45 N12 1_555 1_555
H44 C45 1_555 1_555
C46 C42 1_555 1_555
H45 C46 1_555 1_555
N3 C3 1_555 1_555
C5 C7 1_555 1_555
C6 C7 1_555 1_555
C7 C8 1_555 1_555
C12 C13 1_555 1_555
C17 C18 1_555 1_555
C22 C23 1_555 1_555
N9 C26 1_555 1_555
C28 C30 1_555 1_555
C29 C30 1_555 1_555
C35 C36 1_555 1_555
C40 C41 1_555 1_555
C45 C46 1_555 1_555

#END
