
#######################################################################
#
#                 Cambridge Crystallographic Data Centre
#                                CCDC 
#
#######################################################################
#
# If this CIF has been generated from an entry in the Cambridge 
# Structural Database, then it will include bibliographic, chemical, 
# crystal, experimental, refinement or atomic coordinate data resulting 
# from the CCDC's data processing and validation procedures.
#
#######################################################################

data_ZAWRIB
_chemical_formula_moiety         'C21 H20 F1 N1 O2 S1'
_chemical_name_systematic        
N-[2-(2-fluorophenyl)-2-phenylethyl]-N-methylbenzenesulfonamide
_symmetry_cell_setting           triclinic
_symmetry_space_group_name_H-M   'P 1'
_symmetry_Int_Tables_number      1
_space_group_name_Hall           'P 1'
loop_
_symmetry_equiv_pos_site_id
_symmetry_equiv_pos_as_xyz
1 x,y,z
_cell_length_a                   8.9044(15)
_cell_length_b                   10.1505(17)
_cell_length_c                   11.649(2)
_cell_angle_alpha                84.652(4)
_cell_angle_beta                 70.657(3)
_cell_angle_gamma                67.909(3)
_cell_volume                     919.928
_exptl_crystal_colour            colorless
_exptl_crystal_description       prismatic
_cell_formula_units_Z            2
loop_
_atom_site_label
_atom_site_type_symbol
_atom_site_fract_x
_atom_site_fract_y
_atom_site_fract_z
S1 S 0.41869(17) 0.09919(14) 0.35647(12)
F1 F 0.2892(7) 0.2993(5) 0.8554(5)
N1 N 0.3208(7) 0.1897(6) 0.4869(5)
O1 O 0.4420(7) -0.0459(5) 0.3828(5)
O2 O 0.3231(7) 0.1693(6) 0.2755(5)
C1 C 0.3525(8) 0.1210(7) 0.5972(6)
H1 H 0.4401 0.1451 0.6122
H2 H 0.3956 0.0186 0.5842
C2 C 0.1913(8) 0.1652(6) 0.7104(5)
H3 H 0.1520 0.2686 0.7218
C3 C 0.2483(8) 0.0989(7) 0.8188(6)
C4 C 0.2603(11) -0.0390(8) 0.8518(7)
H4 H 0.2293 -0.0918 0.8090
C5 C 0.3189(14) -0.0982(9) 0.9491(8)
H5 H 0.3275 -0.1908 0.9701
C6 C 0.3641(10) -0.0212(9) 1.0144(7)
H6 H 0.4051 -0.0620 1.0782
C7 C 0.3481(10) 0.1142(9) 0.9846(7)
H7 H 0.3752 0.1682 1.0293
C8 C 0.2917(8) 0.1721(8) 0.8880(6)
C9 C 0.0431(7) 0.1330(6) 0.7020(6)
C10 C 0.0648(9) 0.0220(8) 0.6319(7)
H8 H 0.1729 -0.0315 0.5805
C11 C -0.0797(11) -0.0105(10) 0.6387(9)
H9 H -0.0662 -0.0851 0.5909
C12 C -0.2367(10) 0.0661(10) 0.7141(9)
H10 H -0.3297 0.0411 0.7213
C13 C -0.2587(10) 0.1817(10) 0.7806(10)
H11 H -0.3675 0.2366 0.8300
C14 C -0.1216(9) 0.2158(8) 0.7744(7)
H12 H -0.1381 0.2945 0.8186
C15 C 0.3026(10) 0.3392(7) 0.4794(7)
H13 H 0.2145 0.3913 0.5506
H14 H 0.2724 0.3781 0.4083
H15 H 0.4090 0.3466 0.4744
C16 C 0.6219(8) 0.1156(7) 0.2971(6)
C17 C 0.7321(10) 0.0704(8) 0.3650(7)
H16 H 0.7002 0.0288 0.4392
C18 C 0.8880(11) 0.0858(9) 0.3250(9)
H17 H 0.9615 0.0584 0.3712
C19 C 0.9303(11) 0.1452(9) 0.2100(11)
H18 H 1.0348 0.1572 0.1805
C20 C 0.8258(14) 0.1858(11) 0.1400(9)
H19 H 0.8607 0.2207 0.0631
C21 C 0.6643(11) 0.1742(9) 0.1858(7)
H20 H 0.5880 0.2054 0.1416
S2 S 0.77939(17) 0.64008(14) 0.57445(11)
F2 F 1.3424(4) 0.4271(4) 0.0769(3)
N2 N 0.8780(7) 0.5453(6) 0.4476(5)
O3 O 0.7585(7) 0.7832(5) 0.5458(5)
O4 O 0.8691(8) 0.5721(7) 0.6567(5)
C22 C 0.8468(8) 0.6120(7) 0.3353(5)
H21 H 0.8055 0.7145 0.3463
H22 H 0.7580 0.5884 0.3217
C23 C 1.0070(8) 0.5643(7) 0.2227(6)
H23 H 1.0483 0.4606 0.2133
C24 C 1.1531(9) 0.6042(6) 0.2273(5)
C25 C 1.1360(10) 0.7135(8) 0.3002(7)
H24 H 1.0285 0.7636 0.3541
C26 C 1.2698(11) 0.7504(8) 0.2960(7)
H25 H 1.2515 0.8269 0.3438
C27 C 1.4313(11) 0.6752(9) 0.2214(8)
H26 H 1.5234 0.6978 0.2212
C28 C 1.4569(10) 0.5657(8) 0.1466(8)
H27 H 1.5653 0.5136 0.0949
C29 C 1.3148(9) 0.5362(7) 0.1514(6)
C30 C 0.9503(8) 0.6290(7) 0.1134(5)
C31 C 0.9126(11) 0.7698(8) 0.0876(7)
H28 H 0.9299 0.8284 0.1347
C32 C 0.8499(12) 0.8265(9) -0.0059(8)
H29 H 0.8228 0.9231 -0.0200
C33 C 0.8270(10) 0.7435(10) -0.0778(8)
H30 H 0.7875 0.7825 -0.1425
C34 C 0.8616(11) 0.6033(10) -0.0555(7)
H31 H 0.8428 0.5465 -0.1032
C35 C 0.9251(10) 0.5455(9) 0.0388(6)
H32 H 0.9513 0.4489 0.0527
C36 C 0.8954(10) 0.3949(8) 0.4562(7)
H33 H 0.8061 0.3837 0.4341
H34 H 0.8868 0.3657 0.5381
H35 H 1.0047 0.3374 0.4019
C37 C 0.5742(9) 0.6279(6) 0.6320(5)
C38 C 0.4705(9) 0.6682(7) 0.5615(7)
H36 H 0.5029 0.7065 0.4858
C39 C 0.3142(9) 0.6502(8) 0.6069(8)
H37 H 0.2443 0.6736 0.5581
C40 C 0.2600(11) 0.6013(9) 0.7164(8)
H38 H 0.1542 0.5914 0.7441
C41 C 0.3623(14) 0.5664(10) 0.7863(7)
H39 H 0.3244 0.5339 0.8638
C42 C 0.5236(11) 0.5771(8) 0.7464(6)
H40 H 0.5937 0.5511 0.7952
loop_
_geom_bond_atom_site_label_1
_geom_bond_atom_site_label_2
_geom_bond_site_symmetry_1
_geom_bond_site_symmetry_2
S1 N1 1_555 1_555
F1 C8 1_555 1_555
N1 C1 1_555 1_555
O1 S1 1_555 1_555
O2 S1 1_555 1_555
C1 H1 1_555 1_555
H2 C1 1_555 1_555
C2 C1 1_555 1_555
H3 C2 1_555 1_555
C3 C2 1_555 1_555
C4 C3 1_555 1_555
H4 C4 1_555 1_555
C5 C4 1_555 1_555
H5 C5 1_555 1_555
C6 C5 1_555 1_555
H6 C6 1_555 1_555
C7 C6 1_555 1_555
H7 C7 1_555 1_555
C8 C3 1_555 1_555
C9 C2 1_555 1_555
C10 C9 1_555 1_555
H8 C10 1_555 1_555
C11 C10 1_555 1_555
H9 C11 1_555 1_555
C12 C11 1_555 1_555
H10 C12 1_555 1_555
C13 C12 1_555 1_555
H11 C13 1_555 1_555
C14 C9 1_555 1_555
H12 C14 1_555 1_555
C15 N1 1_555 1_555
H13 C15 1_555 1_555
H14 C15 1_555 1_555
H15 C15 1_555 1_555
C16 S1 1_555 1_555
C17 C16 1_555 1_555
H16 C17 1_555 1_555
C18 C17 1_555 1_555
H17 C18 1_555 1_555
C19 C18 1_555 1_555
H18 C19 1_555 1_555
C20 C19 1_555 1_555
H19 C20 1_555 1_555
C21 C16 1_555 1_555
H20 C21 1_555 1_555
S2 N2 1_555 1_555
F2 C29 1_555 1_555
N2 C22 1_555 1_555
O3 S2 1_555 1_555
O4 S2 1_555 1_555
C22 H21 1_555 1_555
H22 C22 1_555 1_555
C23 C22 1_555 1_555
H23 C23 1_555 1_555
C24 C23 1_555 1_555
C25 C24 1_555 1_555
H24 C25 1_555 1_555
C26 C25 1_555 1_555
H25 C26 1_555 1_555
C27 C26 1_555 1_555
H26 C27 1_555 1_555
C28 C27 1_555 1_555
H27 C28 1_555 1_555
C29 C24 1_555 1_555
C30 C23 1_555 1_555
C31 C30 1_555 1_555
H28 C31 1_555 1_555
C32 C31 1_555 1_555
H29 C32 1_555 1_555
C33 C32 1_555 1_555
H30 C33 1_555 1_555
C34 C33 1_555 1_555
H31 C34 1_555 1_555
C35 C30 1_555 1_555
H32 C35 1_555 1_555
C36 N2 1_555 1_555
H33 C36 1_555 1_555
H34 C36 1_555 1_555
H35 C36 1_555 1_555
C37 S2 1_555 1_555
C38 C37 1_555 1_555
H36 C38 1_555 1_555
C39 C38 1_555 1_555
H37 C39 1_555 1_555
C40 C39 1_555 1_555
H38 C40 1_555 1_555
C41 C40 1_555 1_555
H39 C41 1_555 1_555
C42 C37 1_555 1_555
H40 C42 1_555 1_555
C7 C8 1_555 1_555
C13 C14 1_555 1_555
C20 C21 1_555 1_555
C28 C29 1_555 1_555
C34 C35 1_555 1_555
C41 C42 1_555 1_555

#END
