
#######################################################################
#
#                 Cambridge Crystallographic Data Centre
#                                CCDC 
#
#######################################################################
#
# If this CIF has been generated from an entry in the Cambridge 
# Structural Database, then it will include bibliographic, chemical, 
# crystal, experimental, refinement or atomic coordinate data resulting 
# from the CCDC's data processing and validation procedures.
#
#######################################################################

data_ZAWVUR01
_chemical_formula_moiety         'C42 H36 N2 O2'
_chemical_name_systematic        
6-[4-(diphenylamino)phenyl]-2-[2,6-bis(propan-2-yl)phenyl]-1H-benzo[de]isoquinoline-1,3(2H)-dione
_symmetry_cell_setting           tetragonal
_symmetry_space_group_name_H-M   'P 42/n'
_symmetry_Int_Tables_number      86
_space_group_name_Hall           '-P 4bc'
loop_
_symmetry_equiv_pos_site_id
_symmetry_equiv_pos_as_xyz
1 x,y,z
2 1/2-x,1/2-y,z
3 -y,1/2+x,1/2+z
4 1/2+y,-x,1/2+z
5 -x,-y,-z
6 1/2+x,1/2+y,-z
7 y,1/2-x,1/2-z
8 1/2-y,x,1/2-z
_cell_length_a                   22.9279(4)
_cell_length_b                   22.9279(4)
_cell_length_c                   12.4429(3)
_cell_angle_alpha                90
_cell_angle_beta                 90
_cell_angle_gamma                90
_cell_volume                     6541.09
_exptl_crystal_colour            yellow
_exptl_crystal_description       stick
_cell_formula_units_Z            8
loop_
_atom_site_label
_atom_site_type_symbol
_atom_site_fract_x
_atom_site_fract_y
_atom_site_fract_z
O1 O 0.70907(6) 0.41540(7) 0.55384(11)
O2 O 0.69967(6) 0.43009(7) 0.19199(11)
N1 N 0.70494(6) 0.41713(7) 0.37259(12)
N2 N 1.17118(7) 0.40720(9) 0.44301(15)
C1 C 0.82768(8) 0.42043(8) 0.36110(14)
C2 C 0.80008(8) 0.41915(8) 0.46196(15)
C3 C 0.89005(8) 0.41736(8) 0.35458(14)
C4 C 0.64300(8) 0.40379(8) 0.37490(14)
C5 C 0.98780(8) 0.41475(8) 0.45136(15)
C6 C 0.79469(8) 0.42499(8) 0.26603(15)
C7 C 0.89371(8) 0.41469(8) 0.54945(15)
H1 H 0.9156 0.4131 0.6142
C8 C 0.60274(8) 0.44951(9) 0.37781(15)
C9 C 0.73018(8) 0.42499(8) 0.27056(15)
C10 C 0.92284(8) 0.41553(8) 0.45188(15)
C11 C 0.91455(8) 0.41438(9) 0.25046(15)
H2 H 0.9554 0.4086 0.2437
C12 C 0.62113(8) 0.51270(9) 0.38670(16)
H3 H 0.6628 0.5155 0.3635
C13 C 0.73554(8) 0.41772(8) 0.46973(15)
C14 C 0.83260(8) 0.41617(9) 0.55454(15)
H4 H 0.8136 0.4151 0.6224
C15 C 1.02002(8) 0.45129(9) 0.38426(16)
H5 H 1.0003 0.4782 0.3391
C16 C 0.62692(8) 0.34498(9) 0.37172(15)
C17 C 1.01773(8) 0.37815(8) 0.52095(16)
H6 H 0.9966 0.3541 0.5693
C18 C 1.07802(8) 0.37630(9) 0.52070(17)
H7 H 1.0978 0.3514 0.5695
C19 C 1.19839(8) 0.41040(9) 0.33986(17)
C20 C 0.54366(8) 0.43443(10) 0.37672(17)
H8 H 0.5149 0.4643 0.3784
C21 C 0.82144(9) 0.42638(9) 0.16689(16)
H9 H 0.7988 0.4320 0.1038
C22 C 1.10990(8) 0.41063(9) 0.44967(17)
C23 C 1.08020(9) 0.44889(9) 0.38252(17)
H10 H 1.1014 0.4735 0.3352
C24 C 1.20476(8) 0.39245(10) 0.53465(18)
C25 C 0.67136(9) 0.29532(9) 0.37028(17)
H11 H 0.7110 0.3136 0.3714
C26 C 0.52654(9) 0.37670(10) 0.37327(17)
H12 H 0.4862 0.3673 0.3724
C27 C 0.56750(9) 0.33252(10) 0.37108(17)
H13 H 0.5549 0.2931 0.3691
C28 C 0.88179(9) 0.41946(10) 0.15919(16)
H14 H 0.9000 0.4183 0.0907
C29 C 1.17783(10) 0.37701(10) 0.25525(19)
H15 H 1.1465 0.3506 0.2664
C30 C 1.24486(9) 0.44770(10) 0.3236(2)
H16 H 1.2595 0.4706 0.3811
C31 C 1.19704(10) 0.42164(10) 0.63135(19)
H17 H 1.1687 0.4517 0.6370
C32 C 1.27011(9) 0.45136(11) 0.2215(2)
H18 H 1.3023 0.4767 0.2100
C33 C 1.24653(9) 0.34830(11) 0.5281(2)
H19 H 1.2523 0.3281 0.4624
C34 C 0.61762(11) 0.53318(11) 0.5039(2)
H20 H 0.5767 0.5347 0.5265
H21 H 0.6350 0.5721 0.5102
H22 H 0.6390 0.5058 0.5499
C35 C 1.20283(11) 0.38196(11) 0.1544(2)
H23 H 1.1879 0.3596 0.0962
C36 C 1.23095(11) 0.40675(12) 0.7201(2)
H24 H 1.2258 0.4270 0.7861
C37 C 0.58540(11) 0.55335(11) 0.3153(2)
H25 H 0.5868 0.5394 0.2409
H26 H 0.6016 0.5929 0.3191
H27 H 0.5448 0.5539 0.3401
C38 C 1.27194(10) 0.36284(13) 0.7128(2)
H28 H 1.2948 0.3527 0.7736
C39 C 1.24898(11) 0.41895(13) 0.1380(2)
H29 H 1.2662 0.4220 0.0688
C40 C 1.27940(11) 0.33401(13) 0.6172(2)
H30 H 1.3076 0.3038 0.6123
C41 C 0.66674(15) 0.25714(15) 0.4692(3)
H31 H 0.6722 0.2811 0.5337
H32 H 0.6969 0.2269 0.4666
H33 H 0.6282 0.2388 0.4713
C42 C 0.66747(17) 0.25899(17) 0.2681(3)
H34 H 0.6287 0.2411 0.2633
H35 H 0.6973 0.2284 0.2698
H36 H 0.6739 0.2841 0.2055
loop_
_geom_bond_atom_site_label_1
_geom_bond_atom_site_label_2
_geom_bond_site_symmetry_1
_geom_bond_site_symmetry_2
O1 C13 1_555 1_555
O2 C9 1_555 1_555
N1 C4 1_555 1_555
N2 C19 1_555 1_555
C1 C2 1_555 1_555
C2 C13 1_555 1_555
C3 C1 1_555 1_555
C4 C8 1_555 1_555
C5 C10 1_555 1_555
C6 C1 1_555 1_555
C7 H1 1_555 1_555
C8 C12 1_555 1_555
C9 N1 1_555 1_555
C10 C3 1_555 1_555
C11 C3 1_555 1_555
H2 C11 1_555 1_555
C12 H3 1_555 1_555
C13 N1 1_555 1_555
C14 C2 1_555 1_555
H4 C14 1_555 1_555
C15 C5 1_555 1_555
H5 C15 1_555 1_555
C16 C4 1_555 1_555
C17 C5 1_555 1_555
H6 C17 1_555 1_555
C18 C17 1_555 1_555
H7 C18 1_555 1_555
C19 C29 1_555 1_555
C20 C8 1_555 1_555
H8 C20 1_555 1_555
C21 C6 1_555 1_555
H9 C21 1_555 1_555
C22 N2 1_555 1_555
C23 C15 1_555 1_555
H10 C23 1_555 1_555
C24 N2 1_555 1_555
C25 C16 1_555 1_555
H11 C25 1_555 1_555
C26 C20 1_555 1_555
H12 C26 1_555 1_555
C27 C16 1_555 1_555
H13 C27 1_555 1_555
C28 C11 1_555 1_555
H14 C28 1_555 1_555
C29 H15 1_555 1_555
C30 C19 1_555 1_555
H16 C30 1_555 1_555
C31 C24 1_555 1_555
H17 C31 1_555 1_555
C32 C30 1_555 1_555
H18 C32 1_555 1_555
C33 C24 1_555 1_555
H19 C33 1_555 1_555
C34 C12 1_555 1_555
H20 C34 1_555 1_555
H21 C34 1_555 1_555
H22 C34 1_555 1_555
C35 C29 1_555 1_555
H23 C35 1_555 1_555
C36 C31 1_555 1_555
H24 C36 1_555 1_555
C37 C12 1_555 1_555
H25 C37 1_555 1_555
H26 C37 1_555 1_555
H27 C37 1_555 1_555
C38 C36 1_555 1_555
H28 C38 1_555 1_555
C39 C32 1_555 1_555
H29 C39 1_555 1_555
C40 C33 1_555 1_555
H30 C40 1_555 1_555
C41 C25 1_555 1_555
H31 C41 1_555 1_555
H32 C41 1_555 1_555
H33 C41 1_555 1_555
C42 C25 1_555 1_555
H34 C42 1_555 1_555
H35 C42 1_555 1_555
H36 C42 1_555 1_555
C6 C9 1_555 1_555
C7 C10 1_555 1_555
C7 C14 1_555 1_555
C18 C22 1_555 1_555
C21 C28 1_555 1_555
C22 C23 1_555 1_555
C26 C27 1_555 1_555
C35 C39 1_555 1_555
C38 C40 1_555 1_555

#END
