
#######################################################################
#
#                 Cambridge Crystallographic Data Centre
#                                CCDC 
#
#######################################################################
#
# If this CIF has been generated from an entry in the Cambridge 
# Structural Database, then it will include bibliographic, chemical, 
# crystal, experimental, refinement or atomic coordinate data resulting 
# from the CCDC's data processing and validation procedures.
#
#######################################################################

data_ZAXPIA
_chemical_formula_moiety         'C16 H24 O7,H2 O1'
_chemical_name_systematic        
'2,3,5,6,8,9,11,12,14,15-decahydro-1,4,7,10,13,16-benzohexaoxacyclooctadecin-18-ol monohydrate'
_symmetry_cell_setting           orthorhombic
_symmetry_space_group_name_H-M   'P b c a'
_symmetry_Int_Tables_number      61
_space_group_name_Hall           '-P 2ac 2ab'
loop_
_symmetry_equiv_pos_site_id
_symmetry_equiv_pos_as_xyz
1 x,y,z
2 1/2-x,-y,1/2+z
3 -x,1/2+y,1/2-z
4 1/2+x,1/2-y,-z
5 -x,-y,-z
6 1/2+x,y,1/2-z
7 x,1/2-y,1/2+z
8 1/2-x,1/2+y,z
_cell_length_a                   13.800(2)
_cell_length_b                   9.3856(13)
_cell_length_c                   27.817(4)
_cell_angle_alpha                90
_cell_angle_beta                 90
_cell_angle_gamma                90
_cell_volume                     3602.89
_exptl_crystal_colour            colorless
_exptl_crystal_description       plate
_cell_formula_units_Z            8
_exptl_crystal_recrystallization_method dichloromethane/hexane
loop_
_atom_site_label
_atom_site_type_symbol
_atom_site_fract_x
_atom_site_fract_y
_atom_site_fract_z
O1 O 0.03134(15) 0.2861(2) 0.28522(7)
O2 O 0.17316(15) 0.4617(2) 0.29161(7)
O3 O 0.23715(15) 0.5525(2) 0.38409(7)
O4 O 0.13028(16) 0.4605(2) 0.46517(7)
O5 O 0.05021(16) 0.1790(2) 0.46268(7)
O6 O 0.02186(16) 0.0809(2) 0.36187(7)
O7 O 0.1247(2) 0.1561(3) 0.12279(8)
C1 C -0.0371(3) 0.1699(4) 0.28784(12)
C2 C 0.0878(2) 0.2945(3) 0.24494(10)
C3 C 0.0720(3) 0.2177(4) 0.20322(12)
C4 C 0.1377(2) 0.2297(4) 0.16495(11)
C5 C 0.2171(2) 0.3184(4) 0.16890(12)
C6 C 0.2320(3) 0.3968(4) 0.21100(12)
C7 C 0.1683(2) 0.3870(3) 0.24891(10)
C8 C 0.2578(3) 0.5477(4) 0.29886(13)
C9 C 0.2429(3) 0.6374(4) 0.34209(12)
C10 C 0.2251(3) 0.6377(4) 0.42573(12)
C11 C 0.2175(3) 0.5426(4) 0.46842(13)
C12 C 0.1136(3) 0.3742(4) 0.50666(12)
C13 C 0.0260(3) 0.2842(4) 0.49773(13)
C14 C -0.0324(3) 0.1022(4) 0.44613(13)
C15 C -0.0021(3) 0.0065(4) 0.40481(12)
C16 C -0.0603(2) 0.1457(4) 0.33968(13)
H1 H 0.072(3) 0.087(4) 0.1218(14)
H2 H -0.005(2) 0.087(3) 0.2740(10)
H3 H -0.098(2) 0.199(3) 0.2710(9)
H4 H 0.016(2) 0.158(3) 0.2019(11)
H5 H 0.259(2) 0.336(3) 0.1413(10)
H6 H 0.290(2) 0.450(3) 0.2142(9)
H7 H 0.2725(18) 0.608(3) 0.2723(9)
H8 H 0.312(2) 0.486(3) 0.3033(10)
H9 H 0.297(2) 0.709(3) 0.3450(10)
H10 H 0.181(3) 0.683(3) 0.3381(11)
H11 H 0.159(2) 0.696(3) 0.4215(10)
H12 H 0.283(2) 0.704(3) 0.4281(10)
H13 H 0.279(3) 0.483(4) 0.4708(12)
H14 H 0.216(2) 0.602(3) 0.4997(12)
H15 H 0.103(2) 0.436(3) 0.5352(10)
H16 H 0.174(3) 0.316(4) 0.5152(11)
H17 H 0.0088(19) 0.242(3) 0.5279(10)
H18 H -0.031(3) 0.336(3) 0.4836(11)
H19 H -0.083(2) 0.167(3) 0.4357(10)
H20 H -0.055(2) 0.044(4) 0.4741(12)
H21 H 0.057(2) -0.041(3) 0.4133(10)
H22 H -0.059(2) -0.069(3) 0.3978(10)
H23 H -0.076(2) 0.224(3) 0.3577(10)
H24 H -0.122(2) 0.084(3) 0.3408(9)
O8 O 0.02121(19) 0.4645(3) 0.37647(11)
H25 H 0.052(3) 0.448(4) 0.3516(15)
H26 H 0.057(3) 0.456(5) 0.4019(16)
loop_
_geom_bond_atom_site_label_1
_geom_bond_atom_site_label_2
_geom_bond_site_symmetry_1
_geom_bond_site_symmetry_2
O1 C1 1_555 1_555
O2 C7 1_555 1_555
O3 C9 1_555 1_555
O4 C11 1_555 1_555
O5 C13 1_555 1_555
O6 C15 1_555 1_555
O7 C4 1_555 1_555
C1 C16 1_555 1_555
C2 O1 1_555 1_555
C3 C2 1_555 1_555
C4 C3 1_555 1_555
C5 C4 1_555 1_555
C6 C5 1_555 1_555
C7 C2 1_555 1_555
C8 O2 1_555 1_555
C9 C8 1_555 1_555
C10 O3 1_555 1_555
C11 C10 1_555 1_555
C12 O4 1_555 1_555
C13 C12 1_555 1_555
C14 O5 1_555 1_555
C15 C14 1_555 1_555
C16 O6 1_555 1_555
H1 O7 1_555 1_555
H2 C1 1_555 1_555
H3 C1 1_555 1_555
H4 C3 1_555 1_555
H5 C5 1_555 1_555
H6 C6 1_555 1_555
H7 C8 1_555 1_555
H8 C8 1_555 1_555
H9 C9 1_555 1_555
H10 C9 1_555 1_555
H11 C10 1_555 1_555
H12 C10 1_555 1_555
H13 C11 1_555 1_555
H14 C11 1_555 1_555
H15 C12 1_555 1_555
H16 C12 1_555 1_555
H17 C13 1_555 1_555
H18 C13 1_555 1_555
H19 C14 1_555 1_555
H20 C14 1_555 1_555
H21 C15 1_555 1_555
H22 C15 1_555 1_555
H23 C16 1_555 1_555
H24 C16 1_555 1_555
O8 H25 1_555 1_555
H26 O8 1_555 1_555
C6 C7 1_555 1_555

#END
