
#######################################################################
#
#                 Cambridge Crystallographic Data Centre
#                                CCDC 
#
#######################################################################
#
# If this CIF has been generated from an entry in the Cambridge 
# Structural Database, then it will include bibliographic, chemical, 
# crystal, experimental, refinement or atomic coordinate data resulting 
# from the CCDC's data processing and validation procedures.
#
#######################################################################

data_ZAYSUQ
_chemical_formula_moiety         'C29 H26 Cl1 N1 O3 S2'
_chemical_name_systematic        
N-{1-(4-chlorophenyl)-2-[(4-methylphenyl)sulfanyl]-3-oxo-3-phenylpropyl}-4-methylbenzene-1-sulfonamide
_symmetry_cell_setting           monoclinic
_symmetry_space_group_name_H-M   'P 21/c'
_symmetry_Int_Tables_number      14
_space_group_name_Hall           '-P 2ybc'
loop_
_symmetry_equiv_pos_site_id
_symmetry_equiv_pos_as_xyz
1 x,y,z
2 -x,1/2+y,1/2-z
3 -x,-y,-z
4 x,1/2-y,1/2+z
_cell_length_a                   10.7451(4)
_cell_length_b                   24.1196(8)
_cell_length_c                   10.5407(4)
_cell_angle_alpha                90
_cell_angle_beta                 100.4880(10)
_cell_angle_gamma                90
_cell_volume                     2686.17
_exptl_crystal_colour            colorless
_exptl_crystal_description       block
_cell_formula_units_Z            4
loop_
_atom_site_label
_atom_site_type_symbol
_atom_site_fract_x
_atom_site_fract_y
_atom_site_fract_z
Cl1 Cl 1.11290(8) 0.50632(5) 0.26168(11)
S1 S 0.47075(6) 0.45987(3) 0.30244(6)
S2 S 0.57907(8) 0.66108(3) 0.10913(7)
O1 O 0.41145(18) 0.44751(8) 0.41145(17)
O2 O 0.4037(2) 0.44960(9) 0.17503(18)
O3 O 0.31763(19) 0.59234(10) 0.09416(19)
N1 N 0.50205(18) 0.52595(8) 0.31400(18)
H1 H 0.4302 0.5432 0.3204
C1 C 0.6153(3) 0.42384(10) 0.3229(2)
C2 C 0.6632(3) 0.40650(13) 0.2172(3)
H2 H 0.6157 0.4107 0.1347
C3 C 0.7811(4) 0.38296(15) 0.2338(3)
H3 H 0.8133 0.3715 0.1620
C4 C 0.8530(3) 0.37594(13) 0.3555(3)
C5 C 0.9854(4) 0.35141(19) 0.3743(4)
H4 H 0.9805 0.3134 0.3467
H5 H 1.0236 0.3533 0.4639
H6 H 1.0357 0.3720 0.3243
C6 C 0.8027(3) 0.39297(13) 0.4599(3)
H7 H 0.8494 0.3879 0.5425
C7 C 0.6854(3) 0.41727(12) 0.4458(2)
H8 H 0.6536 0.4291 0.5176
C8 C 0.5566(2) 0.55532(10) 0.2143(2)
H9 H 0.5161 0.5407 0.1301
C9 C 0.6979(2) 0.54682(10) 0.2268(2)
C10 C 0.7792(2) 0.55074(11) 0.3452(2)
H10 H 0.7475 0.5610 0.4182
C11 C 0.9070(3) 0.53941(12) 0.3554(3)
H11 H 0.9612 0.5423 0.4347
C12 C 0.9532(3) 0.52393(13) 0.2476(3)
C13 C 0.8755(3) 0.52061(15) 0.1295(3)
H12 H 0.9079 0.5107 0.0566
C14 C 0.7481(3) 0.53226(13) 0.1201(3)
H13 H 0.6952 0.5302 0.0400
C15 C 0.5148(2) 0.61603(10) 0.2216(2)
H14 H 0.5406 0.6299 0.3099
C16 C 0.3711(2) 0.62154(12) 0.1803(2)
C17 C 0.3015(3) 0.66367(12) 0.2428(3)
C18 C 0.3585(4) 0.70116(14) 0.3338(4)
H15 H 0.4462 0.7014 0.3579
C19 C 0.2869(5) 0.73854(17) 0.3898(5)
H16 H 0.3267 0.7638 0.4506
C20 C 0.1592(5) 0.73828(18) 0.3562(5)
H17 H 0.1113 0.7629 0.3954
C21 C 0.0997(4) 0.70192(18) 0.2645(5)
H18 H 0.0120 0.7023 0.2409
C22 C 0.1702(3) 0.66479(15) 0.2075(3)
H19 H 0.1298 0.6403 0.1451
C23 C 0.6564(3) 0.71462(11) 0.2089(3)
C24 C 0.7423(3) 0.70563(13) 0.3201(4)
H20 H 0.7605 0.6696 0.3489
C25 C 0.8020(3) 0.74970(15) 0.3898(4)
H21 H 0.8581 0.7424 0.4662
C26 C 0.7823(3) 0.80285(12) 0.3516(3)
C27 C 0.6980(4) 0.81156(15) 0.2397(5)
H22 H 0.6824 0.8476 0.2098
C28 C 0.6356(4) 0.76847(15) 0.1702(4)
H23 H 0.5779 0.7761 0.0952
C29 C 0.8498(4) 0.85021(15) 0.4279(4)
H24 H 0.9388 0.8477 0.4274
H25 H 0.8358 0.8484 0.5152
H26 H 0.8177 0.8847 0.3899
H27? H 0.5546 0.5311 0.3887
loop_
_geom_bond_atom_site_label_1
_geom_bond_atom_site_label_2
_geom_bond_site_symmetry_1
_geom_bond_site_symmetry_2
Cl1 C12 1_555 1_555
S1 O1 1_555 1_555
S2 C15 1_555 1_555
O2 S1 1_555 1_555
O3 C16 1_555 1_555
N1 S1 1_555 1_555
H1 N1 1_555 1_555
C1 S1 1_555 1_555
C2 C1 1_555 1_555
H2 C2 1_555 1_555
C3 C2 1_555 1_555
H3 C3 1_555 1_555
C4 C3 1_555 1_555
C5 C4 1_555 1_555
H4 C5 1_555 1_555
H5 C5 1_555 1_555
H6 C5 1_555 1_555
C6 C4 1_555 1_555
H7 C6 1_555 1_555
C7 C1 1_555 1_555
H8 C7 1_555 1_555
C8 N1 1_555 1_555
H9 C8 1_555 1_555
C9 C8 1_555 1_555
C10 C9 1_555 1_555
H10 C10 1_555 1_555
C11 C10 1_555 1_555
H11 C11 1_555 1_555
C12 C11 1_555 1_555
C13 C12 1_555 1_555
H12 C13 1_555 1_555
C14 C9 1_555 1_555
H13 C14 1_555 1_555
C15 C8 1_555 1_555
H14 C15 1_555 1_555
C16 C15 1_555 1_555
C17 C16 1_555 1_555
C18 C17 1_555 1_555
H15 C18 1_555 1_555
C19 C18 1_555 1_555
H16 C19 1_555 1_555
C20 C19 1_555 1_555
H17 C20 1_555 1_555
C21 C20 1_555 1_555
H18 C21 1_555 1_555
C22 C17 1_555 1_555
H19 C22 1_555 1_555
C23 S2 1_555 1_555
C24 C23 1_555 1_555
H20 C24 1_555 1_555
C25 C24 1_555 1_555
H21 C25 1_555 1_555
C26 C25 1_555 1_555
C27 C26 1_555 1_555
H22 C27 1_555 1_555
C28 C23 1_555 1_555
H23 C28 1_555 1_555
C29 C26 1_555 1_555
H24 C29 1_555 1_555
H25 C29 1_555 1_555
H26 C29 1_555 1_555
C6 C7 1_555 1_555
C13 C14 1_555 1_555
C21 C22 1_555 1_555
C27 C28 1_555 1_555

#END
