
#######################################################################
#
#                 Cambridge Crystallographic Data Centre
#                                CCDC 
#
#######################################################################
#
# If this CIF has been generated from an entry in the Cambridge 
# Structural Database, then it will include bibliographic, chemical, 
# crystal, experimental, refinement or atomic coordinate data resulting 
# from the CCDC's data processing and validation procedures.
#
#######################################################################

data_ZAZNIZ
_chemical_formula_moiety         'C46 H36 N4 O2'
_chemical_name_systematic        
2,3-Dimethyl-5,10,15,20-tetraphenyl-2,3-dihydroporphyrin-2,3-diol
_symmetry_cell_setting           monoclinic
_symmetry_space_group_name_H-M   'P 21/n'
_symmetry_Int_Tables_number      14
_space_group_name_Hall           '-P 2yn'
loop_
_symmetry_equiv_pos_site_id
_symmetry_equiv_pos_as_xyz
1 x,y,z
2 1/2-x,1/2+y,1/2-z
3 -x,-y,-z
4 1/2+x,1/2-y,1/2+z
_cell_length_a                   24.066(5)
_cell_length_b                   12.971(3)
_cell_length_c                   24.595(5)
_cell_angle_alpha                90
_cell_angle_beta                 114.867(3)
_cell_angle_gamma                90
_cell_volume                     6965.76
_exptl_crystal_colour            black
_exptl_crystal_description       block
_cell_formula_units_Z            8
loop_
_atom_site_label
_atom_site_type_symbol
_atom_site_fract_x
_atom_site_fract_y
_atom_site_fract_z
C1 C 0.8095(2) 0.6008(4) 0.2900(2)
C2 C 0.7124(2) 0.5834(4) 0.2256(2)
C3 C 0.6607(2) 0.5554(4) 0.1750(2)
C4 C 0.6612(2) 0.5029(4) 0.1247(2)
C5 C 0.6084(2) 0.4806(4) 0.0706(2)
H1 H 0.5674 0.4984 0.0623
C6 C 0.6272(2) 0.4295(4) 0.0331(2)
H2 H 0.6016 0.4066 -0.0062
C7 C 0.6919(2) 0.4161(4) 0.0627(2)
C8 C 0.7285(2) 0.3606(4) 0.0424(2)
C9 C 0.7910(2) 0.3415(4) 0.0752(2)
C10 C 0.8274(2) 0.2821(4) 0.0522(2)
H3 H 0.8135 0.2517 0.0136
C11 C 0.8844(2) 0.2784(4) 0.0959(2)
H4 H 0.9188 0.2447 0.0944
C12 C 0.8832(2) 0.3354(4) 0.1453(2)
C13 C 0.9353(2) 0.3501(4) 0.1999(2)
C14 C 0.9368(2) 0.4076(4) 0.2478(2)
C15 C 0.9880(2) 0.4268(4) 0.3030(2)
H5 H 1.0281 0.3998 0.3145
C16 C 0.9702(2) 0.4900(4) 0.3364(2)
H6 H 0.9957 0.5149 0.3753
C17 C 0.9068(2) 0.5132(4) 0.3034(2)
C18 C 0.8715(2) 0.5799(4) 0.3214(2)
C19 C 0.5965(2) 0.5752(4) 0.1690(2)
C20 C 0.5650(2) 0.6647(4) 0.1444(2)
H7 H 0.5857 0.7212 0.1365
C21 C 0.5034(2) 0.6723(5) 0.1313(2)
H8 H 0.4819 0.7343 0.1147
C22 C 0.4728(2) 0.5910(5) 0.1420(3)
H9 H 0.4302 0.5962 0.1314
C23 C 0.5036(2) 0.5021(5) 0.1679(3)
H10 H 0.4828 0.4469 0.1768
C24 C 0.5660(2) 0.4936(4) 0.1811(2)
H11 H 0.5875 0.4319 0.1984
C25 C 0.6991(2) 0.3118(4) -0.0187(2)
C26 C 0.7015(2) 0.3606(4) -0.0676(2)
H12 H 0.7192 0.4273 -0.0629
C27 C 0.6786(2) 0.3142(5) -0.1229(2)
H13 H 0.6806 0.3488 -0.1561
C28 C 0.6526(2) 0.2173(5) -0.1304(2)
H14 H 0.6371 0.1847 -0.1685
C29 C 0.6494(2) 0.1680(4) -0.0816(2)
H15 H 0.6309 0.1019 -0.0865
C30 C 0.6731(2) 0.2152(4) -0.0256(2)
H16 H 0.6714 0.1809 0.0078
C31 C 0.9926(2) 0.2984(4) 0.2056(2)
C32 C 1.0012(2) 0.1950(5) 0.2213(2)
H17 H 0.9713 0.1592 0.2298
C33 C 1.0528(3) 0.1438(5) 0.2245(3)
H18 H 1.0588 0.0733 0.2361
C34 C 1.0950(3) 0.1944(6) 0.2111(3)
H19 H 1.1295 0.1579 0.2116
C35 C 1.0885(3) 0.2980(6) 0.1968(3)
H20 H 1.1188 0.3330 0.1886
C36 C 1.0369(2) 0.3508(5) 0.1944(3)
H21 H 1.0322 0.4223 0.1852
C37 C 0.9098(2) 0.6339(4) 0.3795(2)
C38 C 0.9201(2) 0.5882(5) 0.4341(2)
H22 H 0.8995 0.5264 0.4353
C39 C 0.9613(3) 0.6342(5) 0.4873(3)
H23 H 0.9683 0.6037 0.5247
C40 C 0.9917(3) 0.7233(5) 0.4858(3)
H24 H 1.0200 0.7530 0.5222
C41 C 0.9816(2) 0.7699(5) 0.4322(3)
H25 H 1.0024 0.8316 0.4313
C42 C 0.9402(2) 0.7246(4) 0.3794(2)
H26 H 0.9326 0.7567 0.3423
O1 O 0.79336(17) 0.7016(3) 0.36863(16)
H27 H 0.7940 0.6451 0.3856
C43 C 0.7757(3) 0.6847(5) 0.3067(2)
O2 O 0.6658(2) 0.7240(3) 0.2571(2)
H28 H 0.6668 0.7584 0.2865
C44 C 0.7103(2) 0.6443(4) 0.2779(2)
C45 C 0.7820(3) 0.7849(4) 0.2767(3)
H29 H 0.7556 0.8380 0.2818
H30 H 0.7697 0.7726 0.2339
H31 H 0.8247 0.8081 0.2952
C46 C 0.6960(3) 0.5730(5) 0.3204(2)
H32 H 0.6969 0.6130 0.3545
H33 H 0.7268 0.5181 0.3349
H34 H 0.6554 0.5424 0.2988
N1 N 0.77070(17) 0.5546(3) 0.23788(17)
N2 N 0.71044(17) 0.4650(3) 0.11740(16)
H35 H 0.7487 0.4708 0.1439
N3 N 0.82623(17) 0.3740(3) 0.13254(17)
N4 N 0.88858(17) 0.4606(3) 0.25089(17)
H36 H 0.8510 0.4605 0.2226
C47 C 0.2763(2) 0.5349(4) 0.2889(2)
C48 C 0.2131(2) 0.5504(4) 0.1928(2)
C49 C 0.1849(2) 0.5305(4) 0.1322(2)
C50 C 0.2047(2) 0.4646(4) 0.0986(2)
C51 C 0.1743(2) 0.4449(4) 0.0362(2)
H37 H 0.1358 0.4728 0.0099
C52 C 0.2089(2) 0.3796(4) 0.0198(2)
H38 H 0.1988 0.3536 -0.0193
C53 C 0.2629(2) 0.3574(4) 0.0719(2)
C54 C 0.3117(2) 0.2950(4) 0.0761(2)
C55 C 0.3646(2) 0.2767(4) 0.1283(2)
C56 C 0.4156(2) 0.2152(4) 0.1310(2)
H39 H 0.4188 0.1793 0.0987
C57 C 0.4574(2) 0.2187(4) 0.1878(2)
H40 H 0.4959 0.1846 0.2037
C58 C 0.4335(2) 0.2837(4) 0.2207(2)
C59 C 0.4659(2) 0.3089(4) 0.2808(2)
C60 C 0.4449(2) 0.3690(4) 0.3148(2)
C61 C 0.4752(2) 0.3915(4) 0.3768(2)
H41 H 0.5160 0.3724 0.4023
C62 C 0.4366(2) 0.4446(4) 0.3938(2)
H42 H 0.4455 0.4683 0.4332
C63 C 0.3801(2) 0.4586(4) 0.3421(2)
C64 C 0.3280(2) 0.5103(4) 0.3404(2)
C65 C 0.1267(2) 0.5876(4) 0.0945(2)
C66 C 0.0695(2) 0.5460(6) 0.0842(3)
H43 H 0.0664 0.4822 0.1017
C67 C 0.0164(3) 0.6013(7) 0.0472(3)
H44 H -0.0229 0.5761 0.0408
C68 C 0.0215(3) 0.6923(8) 0.0200(3)
H45 H -0.0145 0.7274 -0.0062
C69 C 0.0769(3) 0.7315(6) 0.0305(3)
H46 H 0.0800 0.7952 0.0129
C70 C 0.1290(3) 0.6792(5) 0.0667(2)
H47 H 0.1678 0.7067 0.0728
C71 C 0.3079(2) 0.2436(4) 0.0201(2)
C72 C 0.3147(2) 0.2995(4) -0.0247(2)
H48 H 0.3200 0.3722 -0.0210
C73 C 0.3139(2) 0.2499(4) -0.0752(2)
H49 H 0.3178 0.2892 -0.1059
C74 C 0.3074(2) 0.1449(4) -0.0811(2)
H50 H 0.3082 0.1113 -0.1151
C75 C 0.2998(2) 0.0890(4) -0.0376(2)
H51 H 0.2942 0.0165 -0.0419
C76 C 0.3003(2) 0.1376(4) 0.0129(2)
H52 H 0.2952 0.0977 0.0429
C77 C 0.5294(2) 0.2651(4) 0.3111(2)
C78 C 0.5799(2) 0.3223(5) 0.3143(2)
H53 H 0.5746 0.3917 0.3008
C79 C 0.6374(2) 0.2785(5) 0.3371(2)
H54 H 0.6715 0.3173 0.3385
C80 C 0.6456(2) 0.1786(5) 0.3576(2)
H55 H 0.6852 0.1483 0.3727
C81 C 0.5968(2) 0.1228(5) 0.3564(2)
H56 H 0.6027 0.0543 0.3715
C82 C 0.5388(2) 0.1660(4) 0.3332(2)
H57 H 0.5052 0.1269 0.3325
C83 C 0.3326(2) 0.5383(4) 0.4015(2)
C84 C 0.3145(2) 0.4678(4) 0.4332(2)
H58 H 0.2964 0.4045 0.4148
C85 C 0.3225(3) 0.4885(5) 0.4916(3)
H59 H 0.3090 0.4402 0.5125
C86 C 0.3499(3) 0.5788(5) 0.5188(3)
H60 H 0.3560 0.5927 0.5589
C87 C 0.3685(2) 0.6493(5) 0.4881(2)
H61 H 0.3873 0.7120 0.5069
C88 C 0.3599(2) 0.6289(4) 0.4296(2)
H62 H 0.3729 0.6778 0.4086
O3 O 0.24098(19) 0.6771(3) 0.33079(18)
H63 H 0.2102 0.7088 0.3300
C89 C 0.2215(3) 0.5956(5) 0.2880(3)
O4 O 0.12998(18) 0.6503(4) 0.20556(19)
H64 H 0.1156 0.6841 0.1735
C90 C 0.1940(2) 0.6354(5) 0.2240(2)
C91 C 0.1775(3) 0.5252(5) 0.3008(3)
H65 H 0.1987 0.4951 0.3409
H66 H 0.1634 0.4700 0.2709
H67 H 0.1423 0.5654 0.2989
C92 C 0.2239(3) 0.7370(5) 0.2179(3)
H68 H 0.2042 0.7610 0.1763
H69 H 0.2676 0.7255 0.2292
H70 H 0.2189 0.7891 0.2443
N5 N 0.26595(17) 0.5048(3) 0.23210(18)
N6 N 0.25793(17) 0.4103(3) 0.11837(17)
H71 H 0.2855 0.4090 0.1558
N7 N 0.37566(17) 0.3180(3) 0.18329(17)
N8 N 0.38757(17) 0.4133(3) 0.29537(17)
H72 H 0.3597 0.4125 0.2581
C93? C 0.7572(18) 0.598(3) 0.3611(15)
C94? C 0.2652(17) 0.725(3) 0.2889(18)
C95? C 0.7206(17) 0.788(3) 0.2302(16)
C96? C 0.1349(17) 0.520(3) 0.2412(19)
C97? C 0.7723(15) 0.665(3) 0.3173(14)
C98? C 0.2359(14) 0.621(3) 0.2911(12)
C99? C 0.7151(13) 0.686(2) 0.2603(12)
C100? C 0.1810(13) 0.594(2) 0.2339(13)
H73? H 0.8320 0.7426 0.3779
H74? H 0.1850 0.6201 0.3321
H75? H 0.7948 0.5665 0.3904
H76? H 0.7280 0.5444 0.3387
H77? H 0.7390 0.6416 0.3820
H78? H 0.2366 0.7806 0.2857
H79? H 0.2750 0.7265 0.2540
H80? H 0.3029 0.7338 0.3255
H81? H 0.6853 0.7948 0.1913
H82? H 0.7584 0.7868 0.2242
H83? H 0.7216 0.8461 0.2559
H84? H 0.1251 0.5442 0.2739
H85? H 0.1527 0.4509 0.2504
H86? H 0.0975 0.5181 0.2038
H87? H 0.6673 0.7008 0.3033
H88? H 0.1404 0.7209 0.2236
O5? O 0.8033(12) 0.757(2) 0.3446(12)
O6? O 0.2230(14) 0.620(2) 0.3426(12)
O7? O 0.6599(14) 0.687(3) 0.268(2)
O8? O 0.1521(14) 0.684(2) 0.2022(15)
loop_
_geom_bond_atom_site_label_1
_geom_bond_atom_site_label_2
_geom_bond_site_symmetry_1
_geom_bond_site_symmetry_2
C1 C18 1_555 1_555
C2 C3 1_555 1_555
C3 C4 1_555 1_555
C4 C5 1_555 1_555
C5 H1 1_555 1_555
C6 C5 1_555 1_555
H2 C6 1_555 1_555
C7 C6 1_555 1_555
C8 C7 1_555 1_555
C9 C8 1_555 1_555
C10 C9 1_555 1_555
H3 C10 1_555 1_555
C11 C10 1_555 1_555
H4 C11 1_555 1_555
C12 C11 1_555 1_555
C13 C12 1_555 1_555
C14 C13 1_555 1_555
C15 C14 1_555 1_555
H5 C15 1_555 1_555
C16 C15 1_555 1_555
H6 C16 1_555 1_555
C17 C16 1_555 1_555
C18 C17 1_555 1_555
C19 C3 1_555 1_555
C20 C19 1_555 1_555
H7 C20 1_555 1_555
C21 C20 1_555 1_555
H8 C21 1_555 1_555
C22 C21 1_555 1_555
H9 C22 1_555 1_555
C23 C22 1_555 1_555
H10 C23 1_555 1_555
C24 C19 1_555 1_555
H11 C24 1_555 1_555
C25 C8 1_555 1_555
C26 C25 1_555 1_555
H12 C26 1_555 1_555
C27 C26 1_555 1_555
H13 C27 1_555 1_555
C28 C27 1_555 1_555
H14 C28 1_555 1_555
C29 C28 1_555 1_555
H15 C29 1_555 1_555
C30 C25 1_555 1_555
H16 C30 1_555 1_555
C31 C13 1_555 1_555
C32 C31 1_555 1_555
H17 C32 1_555 1_555
C33 C32 1_555 1_555
H18 C33 1_555 1_555
C34 C33 1_555 1_555
H19 C34 1_555 1_555
C35 C34 1_555 1_555
H20 C35 1_555 1_555
C36 C31 1_555 1_555
H21 C36 1_555 1_555
C37 C18 1_555 1_555
C38 C37 1_555 1_555
H22 C38 1_555 1_555
C39 C38 1_555 1_555
H23 C39 1_555 1_555
C40 C39 1_555 1_555
H24 C40 1_555 1_555
C41 C40 1_555 1_555
H25 C41 1_555 1_555
C42 C37 1_555 1_555
H26 C42 1_555 1_555
O1 H27 1_555 1_555
C43 C1 1_555 1_555
O2 H28 1_555 1_555
C44 C2 1_555 1_555
C45 C43 1_555 1_555
H29 C45 1_555 1_555
H30 C45 1_555 1_555
H31 C45 1_555 1_555
C46 C44 1_555 1_555
H32 C46 1_555 1_555
H33 C46 1_555 1_555
H34 C46 1_555 1_555
N1 C1 1_555 1_555
N2 C4 1_555 1_555
H35 N2 1_555 1_555
N3 C9 1_555 1_555
N4 C14 1_555 1_555
H36 N4 1_555 1_555
C47 C64 1_555 1_555
C48 C49 1_555 1_555
C49 C50 1_555 1_555
C50 C51 1_555 1_555
C51 H37 1_555 1_555
C52 C51 1_555 1_555
H38 C52 1_555 1_555
C53 C52 1_555 1_555
C54 C53 1_555 1_555
C55 C54 1_555 1_555
C56 C55 1_555 1_555
H39 C56 1_555 1_555
C57 C56 1_555 1_555
H40 C57 1_555 1_555
C58 C57 1_555 1_555
C59 C58 1_555 1_555
C60 C59 1_555 1_555
C61 C60 1_555 1_555
H41 C61 1_555 1_555
C62 C61 1_555 1_555
H42 C62 1_555 1_555
C63 C62 1_555 1_555
C64 C63 1_555 1_555
C65 C49 1_555 1_555
C66 C65 1_555 1_555
H43 C66 1_555 1_555
C67 C66 1_555 1_555
H44 C67 1_555 1_555
C68 C67 1_555 1_555
H45 C68 1_555 1_555
C69 C68 1_555 1_555
H46 C69 1_555 1_555
C70 C65 1_555 1_555
H47 C70 1_555 1_555
C71 C54 1_555 1_555
C72 C71 1_555 1_555
H48 C72 1_555 1_555
C73 C72 1_555 1_555
H49 C73 1_555 1_555
C74 C73 1_555 1_555
H50 C74 1_555 1_555
C75 C74 1_555 1_555
H51 C75 1_555 1_555
C76 C71 1_555 1_555
H52 C76 1_555 1_555
C77 C59 1_555 1_555
C78 C77 1_555 1_555
H53 C78 1_555 1_555
C79 C78 1_555 1_555
H54 C79 1_555 1_555
C80 C79 1_555 1_555
H55 C80 1_555 1_555
C81 C80 1_555 1_555
H56 C81 1_555 1_555
C82 C77 1_555 1_555
H57 C82 1_555 1_555
C83 C64 1_555 1_555
C84 C83 1_555 1_555
H58 C84 1_555 1_555
C85 C84 1_555 1_555
H59 C85 1_555 1_555
C86 C85 1_555 1_555
H60 C86 1_555 1_555
C87 C86 1_555 1_555
H61 C87 1_555 1_555
C88 C83 1_555 1_555
H62 C88 1_555 1_555
O3 H63 1_555 1_555
C89 C47 1_555 1_555
O4 H64 1_555 1_555
C90 C48 1_555 1_555
C91 C89 1_555 1_555
H65 C91 1_555 1_555
H66 C91 1_555 1_555
H67 C91 1_555 1_555
C92 C90 1_555 1_555
H68 C92 1_555 1_555
H69 C92 1_555 1_555
H70 C92 1_555 1_555
N5 C47 1_555 1_555
N6 C50 1_555 1_555
H71 N6 1_555 1_555
N7 C55 1_555 1_555
N8 C60 1_555 1_555
H72 N8 1_555 1_555
C2 N1 1_555 1_555
C7 N2 1_555 1_555
C12 N3 1_555 1_555
C17 N4 1_555 1_555
C23 C24 1_555 1_555
C29 C30 1_555 1_555
C35 C36 1_555 1_555
C41 C42 1_555 1_555
O1 C43 1_555 1_555
C43 C44 1_555 1_555
O2 C44 1_555 1_555
C48 N5 1_555 1_555
C53 N6 1_555 1_555
C58 N7 1_555 1_555
C63 N8 1_555 1_555
C69 C70 1_555 1_555
C75 C76 1_555 1_555
C81 C82 1_555 1_555
C87 C88 1_555 1_555
O3 C89 1_555 1_555
C89 C90 1_555 1_555
O4 C90 1_555 1_555

#END
