
#######################################################################
#
#                 Cambridge Crystallographic Data Centre
#                                CCDC 
#
#######################################################################
#
# If this CIF has been generated from an entry in the Cambridge 
# Structural Database, then it will include bibliographic, chemical, 
# crystal, experimental, refinement or atomic coordinate data resulting 
# from the CCDC's data processing and validation procedures.
#
#######################################################################

data_ZAZSAX
_chemical_formula_moiety         'C15 H20 O4'
_chemical_name_systematic        
'ethyl 8a-hydroxy-4,4a-dimethyl-5-oxo-4a,5,6,7,8,8a-hexahydronaphthalene-1-carboxylate'
_symmetry_cell_setting           triclinic
_symmetry_space_group_name_H-M   'P -1'
_symmetry_Int_Tables_number      2
_space_group_name_Hall           '-P 1'
loop_
_symmetry_equiv_pos_site_id
_symmetry_equiv_pos_as_xyz
1 x,y,z
2 -x,-y,-z
_cell_length_a                   7.3638(16)
_cell_length_b                   8.8975(19)
_cell_length_c                   11.801(3)
_cell_angle_alpha                68.539(4)
_cell_angle_beta                 84.494(4)
_cell_angle_gamma                78.362(4)
_cell_volume                     704.585
_exptl_crystal_colour            colorless
_exptl_crystal_description       block
_cell_formula_units_Z            2
loop_
_atom_site_label
_atom_site_type_symbol
_atom_site_fract_x
_atom_site_fract_y
_atom_site_fract_z
O1 O 0.9081(2) 0.2666(2) 0.10243(13)
O2 O 0.98983(13) 0.32182(15) 0.37621(10)
H1 H 1.017374 0.380169 0.409522
O3 O 0.8993(2) 0.37145(19) 0.59742(12)
O4 O 0.72926(16) 0.18860(15) 0.71452(10)
C1 C 0.5482(2) 0.2147(2) 0.51429(15)
H2 H 0.491380 0.178753 0.590938
C2 C 0.4611(2) 0.2112(2) 0.41079(16)
H3 H 0.337947 0.197950 0.417932
C3 C 0.5529(2) 0.2265(2) 0.30555(15)
C4 C 0.7576(2) 0.2428(2) 0.29600(14)
C5 C 0.8113(3) 0.3363(3) 0.16286(17)
C6 C 0.7366(3) 0.5173(3) 0.11149(18)
H4 H 0.603628 0.534771 0.102647
H5 H 0.792038 0.564160 0.031326
C7 C 0.7777(3) 0.6039(3) 0.19320(19)
H6 H 0.910354 0.599831 0.193173
H7 H 0.717934 0.718268 0.162073
C8 C 0.7078(3) 0.5224(2) 0.32218(17)
H8 H 0.573931 0.534337 0.322385
H9 H 0.737490 0.577860 0.373289
C9 C 0.79262(19) 0.3399(2) 0.37592(14)
C10 C 0.7086(2) 0.2684(2) 0.50231(14)
C11 C 0.7899(2) 0.2824(2) 0.60695(16)
C12 C 0.8043(3) 0.1955(3) 0.82202(16)
H10 H 0.762373 0.303193 0.827533
H11 H 0.938778 0.175124 0.817022
C13 C 0.7388(3) 0.0686(3) 0.93027(17)
H12 H 0.781992 -0.037601 0.924346
H13 H 0.605732 0.089718 0.934398
H14 H 0.786250 0.071277 1.002367
C14 C 0.4699(3) 0.2042(3) 0.20227(18)
H15 H 0.464100 0.302877 0.131788
H16 H 0.347125 0.181057 0.225572
H17 H 0.545569 0.114511 0.183623
C15 C 0.8723(2) 0.0686(2) 0.33928(17)
H18 H 1.001842 0.074231 0.326598
H19 H 0.839781 0.008019 0.293952
H20 H 0.846990 0.014517 0.424391
loop_
_geom_bond_atom_site_label_1
_geom_bond_atom_site_label_2
_geom_bond_site_symmetry_1
_geom_bond_site_symmetry_2
O1 C5 1_555 1_555
O2 H1 1_555 1_555
O3 C11 1_555 1_555
O4 C11 1_555 1_555
C1 H2 1_555 1_555
C2 C1 1_555 1_555
H3 C2 1_555 1_555
C3 C2 1_555 1_555
C4 C3 1_555 1_555
C5 C4 1_555 1_555
C6 C5 1_555 1_555
H4 C6 1_555 1_555
H5 C6 1_555 1_555
C7 C6 1_555 1_555
H6 C7 1_555 1_555
H7 C7 1_555 1_555
C8 C7 1_555 1_555
H8 C8 1_555 1_555
H9 C8 1_555 1_555
C9 O2 1_555 1_555
C10 C1 1_555 1_555
C11 C10 1_555 1_555
C12 O4 1_555 1_555
H10 C12 1_555 1_555
H11 C12 1_555 1_555
C13 C12 1_555 1_555
H12 C13 1_555 1_555
H13 C13 1_555 1_555
H14 C13 1_555 1_555
C14 C3 1_555 1_555
H15 C14 1_555 1_555
H16 C14 1_555 1_555
H17 C14 1_555 1_555
C15 C4 1_555 1_555
H18 C15 1_555 1_555
H19 C15 1_555 1_555
H20 C15 1_555 1_555
C4 C9 1_555 1_555
C8 C9 1_555 1_555
C9 C10 1_555 1_555

#END
