
#######################################################################
#
#                 Cambridge Crystallographic Data Centre
#                                CCDC 
#
#######################################################################
#
# If this CIF has been generated from an entry in the Cambridge 
# Structural Database, then it will include bibliographic, chemical, 
# crystal, experimental, refinement or atomic coordinate data resulting 
# from the CCDC's data processing and validation procedures.
#
#######################################################################

data_ZEBJOH01
_chemical_formula_moiety         '2(C6 H6 N12 O12),C4 H8 N8 O8'
_chemical_name_systematic        
'1,3,5,7-tetranitro-1,3,5,7-tetrazocane bis(2,4,6,8,10,12-hexanitro-2,4,6,8,10,12-hexaazatetracyclo[5.5.0.0^3,11^.0^5,9^]dodecane)'
_symmetry_cell_setting           triclinic
_symmetry_space_group_name_H-M   'P 1'
_symmetry_Int_Tables_number      1
_space_group_name_Hall           'P 1'
loop_
_symmetry_equiv_pos_site_id
_symmetry_equiv_pos_as_xyz
1 x,y,z
_cell_length_a                   16.3455
_cell_length_b                   9.9361
_cell_length_c                   12.1419
_cell_angle_alpha                90.0000
_cell_angle_beta                 99.2330
_cell_angle_gamma                90.0000
_cell_volume                     1946.42
_exptl_crystal_colour            'white crystalline powder'
_cell_formula_units_Z            2
_chemical_properties_physical    Heat-sensitive
_exptl_crystal_recrystallization_method 
'Re-crystallisation from solvent: Acetone'
loop_
_atom_site_label
_atom_site_type_symbol
_atom_site_fract_x
_atom_site_fract_y
_atom_site_fract_z
C1 C 0.64305 0.36786 0.82978
C2 C 0.76828 0.43711 0.94220
C3 C 0.69292 0.49841 0.99055
C4 C 0.63315 0.48223 0.73658
C5 C 0.75180 0.61622 0.79941
C6 C 0.67533 0.67469 0.84789
N1 N 0.73095 0.33595 0.86088
N2 N 0.75262 0.19819 0.87906
N3 N 0.62209 0.42355 0.93228
N4 N 0.57141 0.35144 0.99504
N5 N 0.68654 0.63969 0.96407
N6 N 0.65691 0.72682 1.04003
N7 N 0.80570 0.54525 0.88775
N8 N 0.88934 0.53292 0.87653
N9 N 0.71528 0.52106 0.71347
N10 N 0.72604 0.54068 0.60208
N11 N 0.60476 0.60452 0.78306
N12 N 0.53896 0.67758 0.72292
O1 O 0.70652 0.11643 0.82627
O2 O 0.81783 0.17713 0.94230
O3 O 0.57800 0.38431 1.09371
O4 O 0.52373 0.26955 0.94487
O5 O 0.66435 0.68466 1.13628
O6 O 0.63028 0.83576 1.00392
O7 O 0.92944 0.44238 0.92859
O8 O 0.91518 0.61850 0.81751
O9 O 0.78309 0.61657 0.58653
O10 O 0.68039 0.47602 0.53238
O11 O 0.49512 0.61775 0.64751
O12 O 0.53037 0.79279 0.75637
H1 H 0.60545 0.27918 0.80195
H2 H 0.81405 0.39187 1.00722
H3 H 0.69926 0.48505 1.08084
H4 H 0.59150 0.45058 0.66155
H5 H 0.78672 0.69491 0.76486
H6 H 0.66940 0.78372 0.83720
C7 C 0.37780 0.53735 1.17674
C8 C 0.24896 0.42509 1.14749
C9 C 0.30814 0.35973 1.07130
C10 C 0.35915 0.65712 1.09015
C11 C 0.21967 0.61121 1.01432
C12 C 0.27693 0.54453 0.93664
N13 N 0.30369 0.51006 1.22475
N14 N 0.31454 0.48057 1.34087
N15 N 0.39096 0.41318 1.11635
N16 N 0.44352 0.31359 1.18231
N17 N 0.28049 0.40097 0.95758
N18 N 0.29953 0.31710 0.87146
N19 N 0.18752 0.50570 1.07727
N20 N 0.10930 0.52277 1.10987
N21 N 0.27464 0.70337 1.08720
N22 N 0.25968 0.84420 1.06766
N23 N 0.35542 0.61078 0.97644
N24 N 0.42501 0.59483 0.92785
O13 O 0.37709 0.52642 1.39632
O14 O 0.25786 0.41823 1.37224
O15 O 0.44107 0.20087 1.14238
O16 O 0.48716 0.35532 1.26635
O17 O 0.33520 0.21155 0.89990
O18 O 0.27502 0.35715 0.77593
O19 O 0.09089 0.44157 1.17816
O20 O 0.06542 0.61323 1.06376
O21 O 0.18600 0.87404 1.04147
O22 O 0.31877 0.92005 1.08385
O23 O 0.48964 0.64165 0.98011
O24 O 0.41556 0.53755 0.83681
H7 H 0.43080 0.56100 1.24077
H8 H 0.21849 0.34960 1.19208
H9 H 0.30815 0.24990 1.07616
H10 H 0.40389 0.73765 1.11104
H11 H 0.16851 0.66575 0.96582
H12 H 0.25556 0.56360 0.84812
C13 C 0.62252 -0.01591 0.23808
C14 C 0.75958 -0.09458 0.31107
C15 C 0.69425 -0.15142 0.38228
C16 C 0.62388 0.12513 0.30061
C17 C 0.75785 0.12345 0.40553
C18 C 0.69720 0.06709 0.48176
N25 N 0.70505 -0.04618 0.21042
N26 N 0.73696 0.04501 0.14034
N27 N 0.61359 -0.12293 0.31596
N28 N 0.56311 -0.23543 0.27346
N29 N 0.70668 -0.07887 0.48783
N30 N 0.67720 -0.14135 0.57974
N31 N 0.80569 0.01198 0.37336
N32 N 0.89192 0.01239 0.39091
N33 N 0.70586 0.17887 0.30560
N34 N 0.70451 0.32795 0.28170
N35 N 0.61801 0.11203 0.41904
N36 N 0.54425 0.06624 0.44719
O25 O 0.68510 0.10539 0.07382
O26 O 0.81279 0.05291 0.15075
O27 O 0.57717 -0.34254 0.32090
O28 O 0.50815 -0.20687 0.19639
O29 O 0.63580 -0.24383 0.55886
O30 O 0.69931 -0.08910 0.67077
O31 O 0.92545 -0.08184 0.34975
O32 O 0.92683 0.10432 0.44720
O33 O 0.65874 0.39703 0.32644
O34 O 0.74490 0.35773 0.20927
O35 O 0.48556 0.06315 0.37023
O36 O 0.54531 0.03583 0.54565
H13 H 0.57429 -0.01946 0.16483
H14 H 0.80219 -0.17130 0.28971
H15 H 0.70050 -0.25969 0.39779
H16 H 0.57536 0.19151 0.25933
H17 H 0.79919 0.20012 0.44593
H18 H 0.70867 0.10738 0.56662
C19 C 0.36300 -0.13022 0.59644
C20 C 0.22503 -0.08125 0.51497
C21 C 0.28563 -0.01024 0.44731
C22 C 0.37788 -0.01958 0.69005
C23 C 0.24727 0.09710 0.65493
C24 C 0.31291 0.16733 0.59180
N37 N 0.27687 -0.17992 0.58852
N38 N 0.27961 -0.31132 0.52933
N39 N 0.36546 -0.07409 0.48577
N40 N 0.39895 -0.15789 0.40818
N41 N 0.29098 0.13310 0.47363
N42 N 0.34316 0.19759 0.40433
N43 N 0.18982 0.01893 0.57816
N44 N 0.10665 0.00896 0.59369
N45 N 0.30111 0.01031 0.73346
N46 N 0.26729 -0.08474 0.79547
N47 N 0.39236 0.10909 0.64253
N48 N 0.45778 0.18918 0.69779
O37 O 0.31313 -0.40169 0.58588
O38 O 0.24982 -0.30966 0.42998
O39 O 0.36559 -0.15218 0.31042
O40 O 0.46054 -0.22193 0.44751
O41 O 0.32489 0.17436 0.30418
O42 O 0.39838 0.26917 0.45120
O43 O 0.06775 -0.08893 0.55238
O44 O 0.08032 0.10245 0.64427
O45 O 0.19280 -0.07505 0.79960
O46 O 0.31587 -0.16919 0.84282
O47 O 0.51552 0.12612 0.75117
O48 O 0.45301 0.31089 0.68190
H19 H 0.40817 -0.21145 0.61549
H20 H 0.17570 -0.13140 0.45900
H21 H 0.26761 -0.02323 0.35747
H22 H 0.42839 -0.04903 0.75556
H23 H 0.21364 0.16947 0.69812
H24 H 0.31433 0.27660 0.60249
C25 C 1.00496 0.14174 1.10486
C26 C 1.00867 -0.11774 1.11024
H25 H 0.93854 0.16036 1.08192
H26 H 1.03271 0.22101 1.16134
H27 H 0.97706 -0.18417 1.16129
H28 H 1.06976 -0.15844 1.10281
N49 N 1.07338 0.01224 1.26247
N50 N 1.01963 0.01535 1.16493
N51 N 1.03975 0.14054 1.00205
N52 N 1.12579 0.14818 1.01062
O49 O 1.08893 0.11723 1.31670
O50 O 1.10146 -0.10182 1.29087
O51 O 1.15430 0.14568 0.92317
O52 O 1.16497 0.15441 1.10629
C27 C 0.99277 -0.10434 0.90006
C28 C 0.99104 0.15190 0.89332
H29 H 1.05905 -0.12323 0.92051
H30 H 0.96539 -0.18477 0.84533
H31 H 1.02262 0.21907 0.84249
H32 H 0.93092 0.19396 0.90375
N53 N 0.92308 0.01824 0.73989
N54 N 0.97872 0.01960 0.83786
N55 N 0.95861 -0.10619 1.00316
N56 N 0.87442 -0.13860 0.99506
O53 O 0.90796 -0.08953 0.68990
O54 O 0.89404 0.12940 0.70688
O55 O 0.85165 -0.18705 1.07781
O56 O 0.83061 -0.11527 0.90454
C29 C 0.99473 0.63810 0.61359
C30 C 1.01439 0.37996 0.61824
H33 H 0.92781 0.65404 0.59650
H34 H 1.02228 0.71790 0.66969
H35 H 0.98486 0.30479 0.66533
H36 H 1.07664 0.34220 0.61278
N57 N 1.07279 0.51428 0.77090
N58 N 1.01543 0.51220 0.67341
N59 N 1.02679 0.63857 0.50817
N60 N 1.10716 0.59811 0.51892
O57 O 1.08946 0.62293 0.81745
O58 O 1.10089 0.40287 0.80491
O59 O 1.12854 0.54106 0.43900
O60 O 1.14925 0.61135 0.61080
C31 C 0.99565 0.38642 0.39999
C32 C 0.98343 0.64582 0.39434
H37 H 1.06252 0.37152 0.41775
H38 H 0.96801 0.30441 0.34666
H39 H 1.02011 0.71144 0.34875
H40 H 0.92295 0.69318 0.39538
N61 N 0.92130 0.50790 0.24218
N62 N 0.97335 0.51185 0.34233
N63 N 0.96637 0.38305 0.50758
N64 N 0.88575 0.36210 0.50828
O61 O 0.90578 0.39779 0.19647
O62 O 0.89635 0.61865 0.20468
O63 O 0.85351 0.37361 0.58904
O64 O 0.84478 0.35722 0.38556
loop_
_geom_bond_atom_site_label_1
_geom_bond_atom_site_label_2
_geom_bond_site_symmetry_1
_geom_bond_site_symmetry_2
C1 C4 1_555 1_555
C2 C3 1_555 1_555
C3 N3 1_555 1_555
C4 N9 1_555 1_555
C5 C6 1_555 1_555
C6 N5 1_555 1_555
N1 C1 1_555 1_555
N2 N1 1_555 1_555
N3 C1 1_555 1_555
N4 N3 1_555 1_555
N5 C3 1_555 1_555
N6 N5 1_555 1_555
N7 C2 1_555 1_555
N8 N7 1_555 1_555
N9 C5 1_555 1_555
N10 N9 1_555 1_555
N11 C4 1_555 1_555
N12 N11 1_555 1_555
O1 N2 1_555 1_555
O2 N2 1_555 1_555
O3 N4 1_555 1_555
O4 N4 1_555 1_555
O5 N6 1_555 1_555
O6 N6 1_555 1_555
O7 N8 1_555 1_555
O8 N8 1_555 1_555
O9 N10 1_555 1_555
O10 N10 1_555 1_555
O11 N12 1_555 1_555
O12 N12 1_555 1_555
H1 C1 1_555 1_555
H2 C2 1_555 1_555
H3 C3 1_555 1_555
H4 C4 1_555 1_555
H5 C5 1_555 1_555
H6 C6 1_555 1_555
C7 C10 1_555 1_555
C8 C9 1_555 1_555
C9 N15 1_555 1_555
C10 N21 1_555 1_555
C11 C12 1_555 1_555
C12 N17 1_555 1_555
N13 C7 1_555 1_555
N14 N13 1_555 1_555
N15 C7 1_555 1_555
N16 N15 1_555 1_555
N17 C9 1_555 1_555
N18 N17 1_555 1_555
N19 C8 1_555 1_555
N20 N19 1_555 1_555
N21 C11 1_555 1_555
N22 N21 1_555 1_555
N23 C10 1_555 1_555
N24 N23 1_555 1_555
O13 N14 1_555 1_555
O14 N14 1_555 1_555
O15 N16 1_555 1_555
O16 N16 1_555 1_555
O17 N18 1_555 1_555
O18 N18 1_555 1_555
O19 N20 1_555 1_555
O20 N20 1_555 1_555
O21 N22 1_555 1_555
O22 N22 1_555 1_555
O23 N24 1_555 1_555
O24 N24 1_555 1_555
H7 C7 1_555 1_555
H8 C8 1_555 1_555
H9 C9 1_555 1_555
H10 C10 1_555 1_555
H11 C11 1_555 1_555
H12 C12 1_555 1_555
C13 C16 1_555 1_555
C14 C15 1_555 1_555
C15 N27 1_555 1_555
C16 N33 1_555 1_555
C17 C18 1_555 1_555
C18 N29 1_555 1_555
N25 C13 1_555 1_555
N26 N25 1_555 1_555
N27 C13 1_555 1_555
N28 N27 1_555 1_555
N29 C15 1_555 1_555
N30 N29 1_555 1_555
N31 C14 1_555 1_555
N32 N31 1_555 1_555
N33 C17 1_555 1_555
N34 N33 1_555 1_555
N35 C16 1_555 1_555
N36 N35 1_555 1_555
O25 N26 1_555 1_555
O26 N26 1_555 1_555
O27 N28 1_555 1_555
O28 N28 1_555 1_555
O29 N30 1_555 1_555
O30 N30 1_555 1_555
O31 N32 1_555 1_555
O32 N32 1_555 1_555
O33 N34 1_555 1_555
O34 N34 1_555 1_555
O35 N36 1_555 1_555
O36 N36 1_555 1_555
H13 C13 1_555 1_555
H14 C14 1_555 1_555
H15 C15 1_555 1_555
H16 C16 1_555 1_555
H17 C17 1_555 1_555
H18 C18 1_555 1_555
C19 C22 1_555 1_555
C20 C21 1_555 1_555
C21 N39 1_555 1_555
C22 N45 1_555 1_555
C23 C24 1_555 1_555
C24 N41 1_555 1_555
N37 C19 1_555 1_555
N38 N37 1_555 1_555
N39 C19 1_555 1_555
N40 N39 1_555 1_555
N41 C21 1_555 1_555
N42 N41 1_555 1_555
N43 C20 1_555 1_555
N44 N43 1_555 1_555
N45 C23 1_555 1_555
N46 N45 1_555 1_555
N47 C22 1_555 1_555
N48 N47 1_555 1_555
O37 N38 1_555 1_555
O38 N38 1_555 1_555
O39 N40 1_555 1_555
O40 N40 1_555 1_555
O41 N42 1_555 1_555
O42 N42 1_555 1_555
O43 N44 1_555 1_555
O44 N44 1_555 1_555
O45 N46 1_555 1_555
O46 N46 1_555 1_555
O47 N48 1_555 1_555
O48 N48 1_555 1_555
H19 C19 1_555 1_555
H20 C20 1_555 1_555
H21 C21 1_555 1_555
H22 C22 1_555 1_555
H23 C23 1_555 1_555
H24 C24 1_555 1_555
C25 H25 1_555 1_555
C26 H27 1_555 1_555
H26 C25 1_555 1_555
H28 C26 1_555 1_555
N49 N50 1_555 1_555
N50 C25 1_555 1_555
N51 C25 1_555 1_555
N52 N51 1_555 1_555
O49 N49 1_555 1_555
O50 N49 1_555 1_555
O51 N52 1_555 1_555
O52 N52 1_555 1_555
C27 H29 1_555 1_555
C28 N51 1_555 1_555
H30 C27 1_555 1_555
H31 C28 1_555 1_555
H32 C28 1_555 1_555
N53 N54 1_555 1_555
N54 C27 1_555 1_555
N55 C26 1_555 1_555
N56 N55 1_555 1_555
O53 N53 1_555 1_555
O54 N53 1_555 1_555
O55 N56 1_555 1_555
O56 N56 1_555 1_555
C29 H33 1_555 1_555
C30 H35 1_555 1_555
H34 C29 1_555 1_555
H36 C30 1_555 1_555
N57 N58 1_555 1_555
N58 C29 1_555 1_555
N59 C29 1_555 1_555
N60 N59 1_555 1_555
O57 N57 1_555 1_555
O58 N57 1_555 1_555
O59 N60 1_555 1_555
O60 N60 1_555 1_555
C31 H37 1_555 1_555
C32 N59 1_555 1_555
H38 C31 1_555 1_555
H39 C32 1_555 1_555
H40 C32 1_555 1_555
N61 N62 1_555 1_555
N62 C31 1_555 1_555
N63 C30 1_555 1_555
N64 N63 1_555 1_555
O61 N61 1_555 1_555
O62 N61 1_555 1_555
O63 N64 1_555 1_555
O64 N64 1_555 1_555
C2 N1 1_555 1_555
C5 N7 1_555 1_555
C6 N11 1_555 1_555
C8 N13 1_555 1_555
C11 N19 1_555 1_555
C12 N23 1_555 1_555
C14 N25 1_555 1_555
C17 N31 1_555 1_555
C18 N35 1_555 1_555
C20 N37 1_555 1_555
C23 N43 1_555 1_555
C24 N47 1_555 1_555
C26 N50 1_555 1_555
C27 N55 1_555 1_555
C28 N54 1_555 1_555
C30 N58 1_555 1_555
C31 N63 1_555 1_555
C32 N62 1_555 1_555

#END
