
#######################################################################
#
#                 Cambridge Crystallographic Data Centre
#                                CCDC 
#
#######################################################################
#
# If this CIF has been generated from an entry in the Cambridge 
# Structural Database, then it will include bibliographic, chemical, 
# crystal, experimental, refinement or atomic coordinate data resulting 
# from the CCDC's data processing and validation procedures.
#
#######################################################################

data_ZECGOF
_chemical_formula_moiety         'C24 H21 Br1 N2 O3'
_chemical_name_systematic        
2-((2R,3S,4R)-2-(2-Bromophenyl)-3-nitro-1,2,3,4-tetrahydroquinolin-4-yl)-1-(4-methylphenyl)ethanone
_symmetry_cell_setting           orthorhombic
_symmetry_space_group_name_H-M   'P b c a'
_symmetry_Int_Tables_number      61
_space_group_name_Hall           '-P 2ac 2ab'
loop_
_symmetry_equiv_pos_site_id
_symmetry_equiv_pos_as_xyz
1 x,y,z
2 1/2-x,-y,1/2+z
3 -x,1/2+y,1/2-z
4 1/2+x,1/2-y,-z
5 -x,-y,-z
6 1/2+x,y,1/2-z
7 x,1/2-y,1/2+z
8 1/2-x,1/2+y,z
_cell_length_a                   11.172(3)
_cell_length_b                   16.743(5)
_cell_length_c                   22.090(7)
_cell_angle_alpha                90
_cell_angle_beta                 90
_cell_angle_gamma                90
_cell_volume                     4132
_exptl_crystal_colour            colorless
_exptl_crystal_description       block
_cell_formula_units_Z            8
loop_
_atom_site_label
_atom_site_type_symbol
_atom_site_fract_x
_atom_site_fract_y
_atom_site_fract_z
Br1 Br 0.58474(4) 0.07230(4) 0.36402(3)
C1 C 0.1274(4) 0.1741(2) 0.43697(19)
C2 C 0.0386(4) 0.2307(3) 0.4461(2)
H1 H 0.0587 0.2845 0.4485
C3 C -0.0796(4) 0.2075(3) 0.4516(2)
H2 H -0.1387 0.2458 0.4576
C4 C -0.1103(4) 0.1280(3) 0.4482(2)
H3 H -0.1897 0.1124 0.4524
C5 C -0.0220(4) 0.0719(3) 0.4384(2)
H4 H -0.0428 0.0182 0.4360
C6 C 0.0977(4) 0.0939(2) 0.4321(2)
C7 C 0.1929(4) 0.0305(2) 0.42245(19)
H5 H 0.1769 -0.0128 0.4512
C8 C 0.1873(4) -0.0056(2) 0.35876(18)
H6 H 0.1054 -0.0212 0.3502
H7 H 0.2098 0.0350 0.3296
C9 C 0.2681(4) -0.0777(3) 0.3504(2)
C10 C 0.3136(4) -0.0984(2) 0.2901(2)
C11 C 0.4174(4) -0.1437(3) 0.2841(2)
H8 H 0.4589 -0.1597 0.3185
C12 C 0.4593(5) -0.1652(3) 0.2279(2)
H9 H 0.5299 -0.1944 0.2249
C13 C 0.3982(5) -0.1443(3) 0.1757(2)
C14 C 0.2948(5) -0.0990(3) 0.1812(3)
H10 H 0.2520 -0.0845 0.1468
C15 C 0.2553(5) -0.0754(3) 0.2375(2)
H11 H 0.1877 -0.0432 0.2403
C16 C 0.4397(6) -0.1723(4) 0.1139(3)
H12 H 0.5256 -0.1731 0.1128
H13 H 0.4103 -0.1365 0.0835
H14 H 0.4096 -0.2251 0.1064
C17 C 0.3410(4) 0.1476(2) 0.41320(19)
H15 H 0.4160 0.1656 0.4318
C18 C 0.3590(4) 0.1496(2) 0.3450(2)
C19 C 0.4587(4) 0.1170(3) 0.3171(2)
C20 C 0.4730(5) 0.1171(3) 0.2549(2)
H16 H 0.5405 0.0941 0.2376
C21 C 0.3868(5) 0.1515(3) 0.2187(2)
H17 H 0.3951 0.1511 0.1768
C22 C 0.2886(5) 0.1862(3) 0.2451(2)
H18 H 0.2310 0.2105 0.2209
C23 C 0.2745(4) 0.1855(3) 0.3070(2)
H19 H 0.2073 0.2094 0.3239
C24 C 0.3171(4) 0.0624(2) 0.4363(2)
H20 H 0.3757 0.0266 0.4174
N1 N 0.2472(3) 0.1989(2) 0.43549(17)
H21 H 0.2652 0.2459 0.4482
N2 N 0.3403(4) 0.0633(2) 0.50409(18)
O1 O 0.2929(3) -0.1190(2) 0.39474(16)
O2 O 0.2628(3) 0.0418(3) 0.53852(15)
O3 O 0.4400(4) 0.0844(2) 0.52089(18)
loop_
_geom_bond_atom_site_label_1
_geom_bond_atom_site_label_2
_geom_bond_site_symmetry_1
_geom_bond_site_symmetry_2
Br1 C19 1_555 1_555
C1 C2 1_555 1_555
C2 H1 1_555 1_555
C3 C2 1_555 1_555
H2 C3 1_555 1_555
C4 C3 1_555 1_555
H3 C4 1_555 1_555
C5 C4 1_555 1_555
H4 C5 1_555 1_555
C6 C1 1_555 1_555
C7 C6 1_555 1_555
H5 C7 1_555 1_555
C8 C7 1_555 1_555
H6 C8 1_555 1_555
H7 C8 1_555 1_555
C9 C8 1_555 1_555
C10 C9 1_555 1_555
C11 C10 1_555 1_555
H8 C11 1_555 1_555
C12 C11 1_555 1_555
H9 C12 1_555 1_555
C13 C12 1_555 1_555
C14 C13 1_555 1_555
H10 C14 1_555 1_555
C15 C10 1_555 1_555
H11 C15 1_555 1_555
C16 C13 1_555 1_555
H12 C16 1_555 1_555
H13 C16 1_555 1_555
H14 C16 1_555 1_555
C17 H15 1_555 1_555
C18 C17 1_555 1_555
C19 C18 1_555 1_555
C20 C19 1_555 1_555
H16 C20 1_555 1_555
C21 C20 1_555 1_555
H17 C21 1_555 1_555
C22 C21 1_555 1_555
H18 C22 1_555 1_555
C23 C18 1_555 1_555
H19 C23 1_555 1_555
C24 C7 1_555 1_555
H20 C24 1_555 1_555
N1 C1 1_555 1_555
H21 N1 1_555 1_555
N2 C24 1_555 1_555
O1 C9 1_555 1_555
O2 N2 1_555 1_555
O3 N2 1_555 1_555
C5 C6 1_555 1_555
C14 C15 1_555 1_555
C17 C24 1_555 1_555
C17 N1 1_555 1_555
C22 C23 1_555 1_555

#END
