
#######################################################################
#
#                 Cambridge Crystallographic Data Centre
#                                CCDC 
#
#######################################################################
#
# If this CIF has been generated from an entry in the Cambridge 
# Structural Database, then it will include bibliographic, chemical, 
# crystal, experimental, refinement or atomic coordinate data resulting 
# from the CCDC's data processing and validation procedures.
#
#######################################################################

data_ZECNAW01
_chemical_formula_moiety         'C24 H24 S18'
_chemical_name_systematic        
2,7:3,6-bis(2'-Thioxo-1',3'-dithiole-4',5'-diyl-bis(propane-1,3-diyldithio))-1,4,5,8-tetrathiafulvalene
_symmetry_cell_setting           monoclinic
_symmetry_space_group_name_H-M   'P 21/n'
_symmetry_Int_Tables_number      14
_space_group_name_Hall           '-P 2yn'
loop_
_symmetry_equiv_pos_site_id
_symmetry_equiv_pos_as_xyz
1 x,y,z
2 1/2-x,1/2+y,1/2-z
3 -x,-y,-z
4 1/2+x,1/2-y,1/2+z
_cell_length_a                   11.590(2)
_cell_length_b                   21.793(2)
_cell_length_c                   15.426(4)
_cell_angle_alpha                90
_cell_angle_beta                 108.66(1)
_cell_angle_gamma                90
_cell_volume                     3691.5
_exptl_crystal_colour            yellow
_exptl_crystal_description       plates
_chemical_melting_point          231-232deg.C(dec)
_cell_formula_units_Z            4
_exptl_crystal_recrystallization_method 'carbon disulfide/hexane'
loop_
_atom_site_label
_atom_site_type_symbol
_atom_site_fract_x
_atom_site_fract_y
_atom_site_fract_z
S1 S 0.8276(2) 0.0843(1) 0.6168(2)
C1 C 0.8462(9) 0.0363(4) 0.5251(6)
C2 C 0.8726(9) 0.0716(4) 0.4483(6)
C3 C 0.7559(8) 0.1024(5) 0.3866(7)
S2 S 0.7901(3) 0.1488(1) 0.2975(2)
C4 C 0.8492(8) 0.0954(4) 0.2393(6)
S3 S 0.7471(2) 0.0514(1) 0.1539(2)
C5 C 0.8501(9) 0.0130(5) 0.1158(7)
S4 S 0.9993(2) 0.0319(1) 0.1762(2)
C6 C 0.9684(9) 0.0871(4) 0.2493(7)
S5 S 0.8138(3) -0.0383(2) 0.0337(2)
S6 S 1.0862(3) 0.1218(2) 0.3331(2)
C7 C 1.2038(9) 0.1317(5) 0.2780(7)
C8 C 1.3240(9) 0.1448(5) 0.3569(7)
C9 C 1.3773(9) 0.0846(5) 0.4074(7)
S7 S 1.5122(2) 0.1010(1) 0.5044(2)
C10 C 1.4460(8) 0.1366(5) 0.5782(6)
C11 C 1.4519(8) 0.1976(4) 0.6004(6)
S8 S 1.3825(2) 0.2195(1) 0.6795(2)
C12 C 1.2982(9) 0.1518(4) 0.6693(6)
S9 S 1.3646(2) 0.0895(1) 0.6324(2)
C13 C 1.1911(9) 0.1500(4) 0.6860(6)
S10 S 1.1225(3) 0.2142(1) 0.7174(2)
C14 C 0.9738(8) 0.1842(5) 0.6693(6)
C15 C 0.9652(8) 0.1242(5) 0.6525(6)
S11 S 1.1035(2) 0.0828(1) 0.6778(2)
S12 S 1.5292(3) 0.2525(1) 0.5579(2)
C16 C 1.4095(13) 0.3152(5) 0.5339(9)
C17 C 1.3946(10) 0.3411(6) 0.3735(8)
C18 C 1.4302(13) 0.3618(6) 0.4715(10)
S13 S 1.2348(3) 0.3189(1) 0.3190(2)
C19 C 1.1568(9) 0.3818(4) 0.3419(7)
S14 S 1.1700(2) 0.4520(1) 0.2918(2)
C20 C 1.0702(9) 0.4930(5) 0.3300(6)
S15 S 1.0098(3) 0.4508(1) 0.3993(2)
C21 C 1.0819(9) 0.3818(4) 0.3935(7)
S16 S 1.0396(3) 0.5695(1) 0.3071(2)
S17 S 1.0621(3) 0.3201(2) 0.4599(3)
C22 C 0.8975(11) 0.3144(6) 0.4240(9)
C23 C 0.8660(11) 0.2662(5) 0.4879(8)
C24 C 0.8829(11) 0.2936(4) 0.5832(8)
S18 S 0.8513(3) 0.2338(1) 0.6567(2)
loop_
_geom_bond_atom_site_label_1
_geom_bond_atom_site_label_2
_geom_bond_site_symmetry_1
_geom_bond_site_symmetry_2
S1 C1 1_555 1_555
C1 C2 1_555 1_555
C2 C3 1_555 1_555
C3 S2 1_555 1_555
S2 C4 1_555 1_555
C4 S3 1_555 1_555
S3 C5 1_555 1_555
C5 S4 1_555 1_555
S4 C6 1_555 1_555
C6 C4 1_555 1_555
S5 C5 1_555 1_555
S6 C6 1_555 1_555
C7 S6 1_555 1_555
C8 C7 1_555 1_555
C9 C8 1_555 1_555
S7 C9 1_555 1_555
C10 S7 1_555 1_555
C11 C10 1_555 1_555
S8 C11 1_555 1_555
C12 S8 1_555 1_555
S9 C10 1_555 1_555
C13 C12 1_555 1_555
S10 C13 1_555 1_555
C14 S10 1_555 1_555
C15 S1 1_555 1_555
S11 C13 1_555 1_555
S12 C11 1_555 1_555
C16 S12 1_555 1_555
C17 C18 1_555 1_555
C18 C16 1_555 1_555
S13 C17 1_555 1_555
C19 S13 1_555 1_555
S14 C19 1_555 1_555
C20 S14 1_555 1_555
S15 C20 1_555 1_555
C21 C19 1_555 1_555
S16 C20 1_555 1_555
S17 C21 1_555 1_555
C22 S17 1_555 1_555
C23 C22 1_555 1_555
C24 C23 1_555 1_555
S18 C14 1_555 1_555
C12 S9 1_555 1_555
C14 C15 1_555 1_555
C15 S11 1_555 1_555
S15 C21 1_555 1_555
C24 S18 1_555 1_555

#END
