
#######################################################################
#
#                 Cambridge Crystallographic Data Centre
#                                CCDC 
#
#######################################################################
#
# If this CIF has been generated from an entry in the Cambridge 
# Structural Database, then it will include bibliographic, chemical, 
# crystal, experimental, refinement or atomic coordinate data resulting 
# from the CCDC's data processing and validation procedures.
#
#######################################################################

data_ZEDBIW
_chemical_formula_moiety         'C38 H36 N2 O5 S2,2(C1 H2 Cl2)'
_chemical_name_systematic        
"(2,6-bis((4-methylphenyl)sulfonyl)-4-phenyl-1,2,3,4a,5,6,7,9a-octahydro-7aH-pyrrolo[3',4':4,5]cyclohepta[1,2-c]pyrrol-7a-yl)(phenyl)methanone dichloromethane solvate"
_symmetry_cell_setting           monoclinic
_symmetry_space_group_name_H-M   'P 21/n'
_symmetry_Int_Tables_number      14
_space_group_name_Hall           '-P 2yn'
loop_
_symmetry_equiv_pos_site_id
_symmetry_equiv_pos_as_xyz
1 x,y,z
2 1/2-x,1/2+y,1/2-z
3 -x,-y,-z
4 1/2+x,1/2-y,1/2+z
_cell_length_a                   9.1749(7)
_cell_length_b                   24.067(2)
_cell_length_c                   18.2841(15)
_cell_angle_alpha                90
_cell_angle_beta                 96.484(3)
_cell_angle_gamma                90
_cell_volume                     4011.53
_exptl_crystal_colour            colorless
_exptl_crystal_description       block
_cell_formula_units_Z            4
loop_
_atom_site_label
_atom_site_type_symbol
_atom_site_fract_x
_atom_site_fract_y
_atom_site_fract_z
S1 S 0.43666(14) 0.23634(7) 0.81961(8)
S2 S 1.18466(14) 0.41524(6) 0.57638(8)
N1 N 0.5139(4) 0.26049(18) 0.7506(2)
N2 N 1.0574(4) 0.36938(18) 0.5606(2)
O1 O 0.4356(4) 0.17739(17) 0.8128(2)
O2 O 0.3025(4) 0.26631(19) 0.8207(2)
O3 O 1.1844(4) 0.44728(17) 0.5102(2)
O4 O 1.3125(4) 0.38611(17) 0.6060(2)
O5 O 0.6382(4) 0.28748(17) 0.4939(2)
C1 C 0.5852(5) 0.3779(2) 0.4492(3)
C2 C 0.6010(6) 0.4350(2) 0.4562(3)
H1 H 0.6677 0.4497 0.4932
C3 C 0.5178(6) 0.4699(3) 0.4084(4)
H2 H 0.5288 0.5082 0.4137
C4 C 0.4197(6) 0.4493(3) 0.3534(3)
H3 H 0.3633 0.4731 0.3218
C5 C 0.4054(7) 0.3921(3) 0.3455(4)
H4 H 0.3400 0.3777 0.3078
C6 C 0.4867(6) 0.3569(3) 0.3926(3)
H5 H 0.4759 0.3187 0.3867
C7 C 0.5531(6) 0.2535(3) 0.9001(3)
C8 C 0.6620(6) 0.2169(3) 0.9268(3)
H6 H 0.6693 0.1822 0.9051
C9 C 0.7592(6) 0.2324(3) 0.9857(3)
H7 H 0.8334 0.2079 1.0035
C10 C 0.7498(6) 0.2831(3) 1.0193(3)
C11 C 0.6368(7) 0.3185(3) 0.9925(4)
H8 H 0.6268 0.3525 1.0155
C12 C 0.5402(7) 0.3045(3) 0.9333(3)
H9 H 0.4662 0.3290 0.9154
C13 C 0.8977(5) 0.2110(2) 0.6532(3)
C14 C 0.8438(6) 0.1653(2) 0.6125(4)
H10 H 0.7593 0.1690 0.5797
C15 C 0.9128(8) 0.1146(3) 0.6198(4)
H11 H 0.8763 0.0845 0.5915
C16 C 1.0372(8) 0.1087(3) 0.6696(5)
H12 H 1.0825 0.0742 0.6763
C17 C 1.0922(6) 0.1529(3) 0.7080(4)
H13 H 1.1781 0.1490 0.7399
C18 C 1.0247(6) 0.2037(2) 0.7014(3)
H14 H 1.0641 0.2335 0.7294
C19 C 1.1337(6) 0.4593(2) 0.6450(3)
C20 C 1.0457(6) 0.5044(3) 0.6269(4)
H15 H 1.0160 0.5123 0.5777
C21 C 1.0007(7) 0.5380(3) 0.6811(5)
H16 H 0.9398 0.5681 0.6679
C22 C 1.0440(9) 0.5279(3) 0.7536(5)
C23 C 1.1333(10) 0.4824(4) 0.7725(5)
H17 H 1.1638 0.4750 0.8218
C24 C 1.1772(8) 0.4480(3) 0.7186(4)
H18 H 1.2359 0.4173 0.7316
C25 C 0.9204(5) 0.3813(2) 0.5125(3)
H19 H 0.9223 0.3647 0.4643
H20 H 0.9049 0.4210 0.5069
C26 C 0.8004(5) 0.3545(2) 0.5537(3)
C27 C 0.8843(5) 0.3031(2) 0.5874(3)
H21 H 0.9011 0.2792 0.5457
C28 C 1.0330(5) 0.3272(2) 0.6156(3)
H22 H 1.0313 0.3437 0.6639
H23 H 1.1085 0.2988 0.6183
C29 C 0.7567(5) 0.3933(2) 0.6115(3)
H24 H 0.7928 0.4294 0.6114
C30 C 0.6715(5) 0.3805(2) 0.6625(3)
H25 H 0.6528 0.4083 0.6956
C31 C 0.6031(5) 0.3256(2) 0.6710(3)
H26 H 0.5303 0.3197 0.6282
C32 C 0.7046(5) 0.2757(2) 0.6771(3)
C33 C 0.8217(5) 0.2655(2) 0.6428(3)
C34 C 0.5238(6) 0.3207(2) 0.7400(3)
H27 H 0.5797 0.3382 0.7820
H28 H 0.4271 0.3374 0.7324
C35 C 0.6512(5) 0.2347(2) 0.7320(3)
H29 H 0.6327 0.1984 0.7098
H30 H 0.7221 0.2310 0.7753
C36 C 0.8585(8) 0.2997(4) 1.0841(4)
H31 H 0.9277 0.2701 1.0953
H32 H 0.8072 0.3068 1.1260
H33 H 0.9097 0.3326 1.0719
C37 C 0.9965(14) 0.5653(4) 0.8141(6)
H34 H 0.9356 0.5947 0.7922
H35 H 1.0817 0.5809 0.8419
H36 H 0.9424 0.5438 0.8460
C38 C 0.6698(5) 0.3363(2) 0.4986(3)
Cl1 Cl 0.7596(13) -0.0232(3) 0.5162(5)
Cl2 Cl 0.9397(12) -0.0436(2) 0.6412(5)
C39 C 0.759(3) -0.0533(12) 0.6028(16)
H37 H 0.6912 -0.0346 0.6313
H38 H 0.7348 -0.0925 0.5990
Cl3 Cl 1.1101(5) 0.38767(13) 0.9457(2)
Cl4 Cl 0.9323(3) 0.33399(14) 0.82807(15)
C40 C 1.0586(10) 0.3279(4) 0.9042(5)
H39 H 1.0180 0.3040 0.9395
H40 H 1.1451 0.3096 0.8897
loop_
_geom_bond_atom_site_label_1
_geom_bond_atom_site_label_2
_geom_bond_site_symmetry_1
_geom_bond_site_symmetry_2
S1 N1 1_555 1_555
S2 N2 1_555 1_555
N1 C34 1_555 1_555
N2 C25 1_555 1_555
O1 S1 1_555 1_555
O2 S1 1_555 1_555
O3 S2 1_555 1_555
O4 S2 1_555 1_555
O5 C38 1_555 1_555
C1 C2 1_555 1_555
C2 H1 1_555 1_555
C3 C2 1_555 1_555
H2 C3 1_555 1_555
C4 C3 1_555 1_555
H3 C4 1_555 1_555
C5 C4 1_555 1_555
H4 C5 1_555 1_555
C6 C1 1_555 1_555
H5 C6 1_555 1_555
C7 S1 1_555 1_555
C8 C7 1_555 1_555
H6 C8 1_555 1_555
C9 C8 1_555 1_555
H7 C9 1_555 1_555
C10 C9 1_555 1_555
C11 C10 1_555 1_555
H8 C11 1_555 1_555
C12 C7 1_555 1_555
H9 C12 1_555 1_555
C13 C14 1_555 1_555
C14 H10 1_555 1_555
C15 C14 1_555 1_555
H11 C15 1_555 1_555
C16 C15 1_555 1_555
H12 C16 1_555 1_555
C17 C16 1_555 1_555
H13 C17 1_555 1_555
C18 C13 1_555 1_555
H14 C18 1_555 1_555
C19 S2 1_555 1_555
C20 C19 1_555 1_555
H15 C20 1_555 1_555
C21 C20 1_555 1_555
H16 C21 1_555 1_555
C22 C21 1_555 1_555
C23 C22 1_555 1_555
H17 C23 1_555 1_555
C24 C19 1_555 1_555
H18 C24 1_555 1_555
C25 H19 1_555 1_555
H20 C25 1_555 1_555
C26 C25 1_555 1_555
C27 C26 1_555 1_555
H21 C27 1_555 1_555
C28 N2 1_555 1_555
H22 C28 1_555 1_555
H23 C28 1_555 1_555
C29 C26 1_555 1_555
H24 C29 1_555 1_555
C30 C29 1_555 1_555
H25 C30 1_555 1_555
C31 C30 1_555 1_555
H26 C31 1_555 1_555
C32 C31 1_555 1_555
C33 C13 1_555 1_555
C34 C31 1_555 1_555
H27 C34 1_555 1_555
H28 C34 1_555 1_555
C35 N1 1_555 1_555
H29 C35 1_555 1_555
H30 C35 1_555 1_555
C36 C10 1_555 1_555
H31 C36 1_555 1_555
H32 C36 1_555 1_555
H33 C36 1_555 1_555
C37 C22 1_555 1_555
H34 C37 1_555 1_555
H35 C37 1_555 1_555
H36 C37 1_555 1_555
C38 C1 1_555 1_555
Cl1 C39 1_555 1_555
Cl2 C39 1_555 1_555
C39 H37 1_555 1_555
H38 C39 1_555 1_555
Cl3 C40 1_555 1_555
Cl4 C40 1_555 1_555
C40 H39 1_555 1_555
H40 C40 1_555 1_555
C5 C6 1_555 1_555
C11 C12 1_555 1_555
C17 C18 1_555 1_555
C23 C24 1_555 1_555
C26 C38 1_555 1_555
C27 C28 1_555 1_555
C27 C33 1_555 1_555
C32 C33 1_555 1_555
C32 C35 1_555 1_555

#END
