
#######################################################################
#
#                 Cambridge Crystallographic Data Centre
#                                CCDC 
#
#######################################################################
#
# If this CIF has been generated from an entry in the Cambridge 
# Structural Database, then it will include bibliographic, chemical, 
# crystal, experimental, refinement or atomic coordinate data resulting 
# from the CCDC's data processing and validation procedures.
#
#######################################################################

data_ZEDFAS
_chemical_formula_moiety         
'C20 H40 K1 O8 1+,0.5(C52 H52 B2 2-),2(C4 H8 O1)'
_chemical_name_systematic        
'(18-crown-6)-bis(tetrahydrofuran)-potassium hemikis((5a,10c-dihydropyrene-1,6-diyl)(tetramesityl)diboron diradical) tetrahydrofuran solvate'
_symmetry_cell_setting           triclinic
_symmetry_space_group_name_H-M   'P -1'
_symmetry_Int_Tables_number      2
_space_group_name_Hall           '-P 1'
loop_
_symmetry_equiv_pos_site_id
_symmetry_equiv_pos_as_xyz
1 x,y,z
2 -x,-y,-z
_cell_length_a                   12.9674(10)
_cell_length_b                   13.7832(10)
_cell_length_c                   16.9990(12)
_cell_angle_alpha                103.244(2)
_cell_angle_beta                 92.538(2)
_cell_angle_gamma                115.197(2)
_cell_volume                     2641.14
_exptl_crystal_colour            blue
_exptl_crystal_description       block
_cell_formula_units_Z            2
loop_
_atom_site_label
_atom_site_type_symbol
_atom_site_fract_x
_atom_site_fract_y
_atom_site_fract_z
B1 B 0.6560(3) 0.2104(3) 0.7580(2)
C1 C 0.6553(2) 0.1672(2) 0.66833(17)
C2 C 0.7380(2) 0.2376(2) 0.62682(18)
H1 H 0.8062 0.2985 0.6592
C3 C 0.7249(2) 0.2224(2) 0.54443(18)
H2 H 0.7829 0.2727 0.5216
C4 C 0.6245(2) 0.1312(2) 0.49130(17)
C5 C 0.5983(2) 0.1204(2) 0.40851(18)
H3 H 0.6459 0.1779 0.3858
C6 C 0.5041(3) 0.0274(2) 0.35808(18)
H4 H 0.4872 0.0249 0.3025
C7 C 0.4337(2) -0.0623(2) 0.38671(17)
C8 C 0.4526(2) -0.0480(2) 0.47363(17)
C9 C 0.5458(3) 0.1566(2) 0.80183(18)
C10 C 0.4354(3) 0.1437(2) 0.77280(18)
C11 C 0.3423(3) 0.0984(3) 0.8132(2)
H5 H 0.2694 0.0914 0.7927
C12 C 0.3520(3) 0.0634(3) 0.8821(2)
C13 C 0.4604(3) 0.0761(3) 0.9106(2)
H6 H 0.4699 0.0529 0.9577
C14 C 0.5548(3) 0.1215(3) 0.87241(18)
C15 C 0.6390(3) 0.4147(3) 0.8641(2)
H7 H 0.5779 0.3420 0.8324
H8 H 0.6282 0.4282 0.9216
H9 H 0.6357 0.4733 0.8422
C16 C 0.4134(3) 0.1782(3) 0.6981(2)
H10 H 0.4851 0.2085 0.6755
H11 H 0.3545 0.1133 0.6568
H12 H 0.3864 0.2354 0.7135
C17 C 0.6693(3) 0.1297(3) 0.9065(2)
H13 H 0.7278 0.1633 0.8736
H14 H 0.6935 0.1762 0.9633
H15 H 0.6606 0.0550 0.9046
C18 C 0.2503(4) 0.0148(4) 0.9248(3)
H16 H 0.2743 -0.0048 0.9719
H17 H 0.2213 0.0698 0.9437
H18 H 0.1890 -0.0522 0.8867
C19 C 0.7660(2) 0.3212(2) 0.81307(17)
C20 C 0.8798(3) 0.3314(3) 0.81686(18)
C21 C 0.9746(3) 0.4308(3) 0.85913(19)
H19 H 1.0497 0.4350 0.8596
C22 C 0.8524(3) 0.5138(3) 0.90018(18)
H20 H 0.8419 0.5756 0.9295
C23 C 0.7549(3) 0.4154(3) 0.85810(18)
C24 C 0.9029(3) 0.2340(3) 0.7781(2)
H21 H 0.8299 0.1694 0.7504
H22 H 0.9550 0.2539 0.7381
H23 H 0.9388 0.2154 0.8206
C25 C 1.0674(3) 0.6320(3) 0.9451(2)
H24 H 1.1378 0.6230 0.9384
H25 H 1.0701 0.6920 0.9223
H26 H 1.0619 0.6508 1.0035
C26 C 0.9631(3) 0.5242(3) 0.90061(19)
B1A B 0.3440(3) -0.2104(3) 0.2420(2)
C1A C 0.3447(2) -0.1672(2) 0.33167(17)
C2A C 0.2620(2) -0.2376(2) 0.37318(18)
H1A H 0.1938 -0.2985 0.3408
C3A C 0.2751(2) -0.2224(2) 0.45557(18)
H2A H 0.2171 -0.2727 0.4784
C4A C 0.3755(2) -0.1312(2) 0.50870(17)
C5A C 0.4017(2) -0.1204(2) 0.59149(18)
H3A H 0.3541 -0.1779 0.6142
C6A C 0.4959(3) -0.0274(2) 0.64192(18)
H4A H 0.5128 -0.0249 0.6975
C7A C 0.5663(2) 0.0623(2) 0.61329(17)
C8A C 0.5474(2) 0.0480(2) 0.52637(17)
C9A C 0.4542(3) -0.1566(2) 0.19817(18)
C10A C 0.5646(3) -0.1437(2) 0.22720(18)
C11A C 0.6577(3) -0.0984(3) 0.1868(2)
H5A H 0.7306 -0.0914 0.2073
C12A C 0.6480(3) -0.0634(3) 0.1179(2)
C13A C 0.5396(3) -0.0761(3) 0.0894(2)
H6A H 0.5301 -0.0529 0.0423
C14A C 0.4452(3) -0.1215(3) 0.12759(18)
C15A C 0.3610(3) -0.4147(3) 0.1359(2)
H7A H 0.4221 -0.3420 0.1676
H8A H 0.3718 -0.4282 0.0784
H9A H 0.3643 -0.4733 0.1578
C16A C 0.5866(3) -0.1782(3) 0.3019(2)
H10A H 0.5149 -0.2085 0.3245
H11A H 0.6455 -0.1133 0.3432
H12A H 0.6136 -0.2354 0.2865
C17A C 0.3307(3) -0.1297(3) 0.0935(2)
H13A H 0.2722 -0.1633 0.1264
H14A H 0.3065 -0.1762 0.0367
H15A H 0.3394 -0.0550 0.0954
C18A C 0.7497(4) -0.0148(4) 0.0752(3)
H16A H 0.7257 0.0048 0.0281
H17A H 0.7787 -0.0698 0.0563
H18A H 0.8110 0.0522 0.1133
C19A C 0.2340(2) -0.3212(2) 0.18693(17)
C20A C 0.1202(3) -0.3314(3) 0.18314(18)
C21A C 0.0254(3) -0.4308(3) 0.14087(19)
H19A H -0.0497 -0.4350 0.1404
C22A C 0.1476(3) -0.5138(3) 0.09982(18)
H20A H 0.1581 -0.5756 0.0705
C23A C 0.2451(3) -0.4154(3) 0.14190(18)
C24A C 0.0971(3) -0.2340(3) 0.2219(2)
H21A H 0.1701 -0.1694 0.2496
H22A H 0.0450 -0.2539 0.2619
H23A H 0.0612 -0.2154 0.1794
C25A C -0.0674(3) -0.6320(3) 0.0549(2)
H24A H -0.1378 -0.6230 0.0616
H25A H -0.0701 -0.6920 0.0777
H26A H -0.0619 -0.6508 -0.0035
C26A C 0.0369(3) -0.5242(3) 0.09939(19)
C27 C 0.2019(6) 0.0838(4) 0.1931(4)
H27 H 0.1894 0.0523 0.2407
H28 H 0.2624 0.0694 0.1665
C28 C 0.0927(6) 0.0335(5) 0.1340(5)
H29 H 0.0250 0.0036 0.1617
H30 H 0.0901 -0.0278 0.0889
C29 C 0.0940(4) 0.1279(4) 0.1017(3)
H31 H 0.0941 0.1116 0.0419
H32 H 0.0265 0.1415 0.1138
C30 C 0.2042(4) 0.2253(4) 0.1472(2)
H33 H 0.2657 0.2377 0.1127
H34 H 0.1934 0.2937 0.1629
C31 C 0.4084(3) 0.4916(3) 0.3305(2)
H35 H 0.3990 0.4438 0.2748
H36 H 0.4851 0.5571 0.3421
C32 C 0.3152(3) 0.5290(3) 0.3351(2)
H37 H 0.3204 0.5715 0.3918
H38 H 0.3240 0.5780 0.2988
C33 C 0.1124(3) 0.4592(3) 0.3043(2)
H39 H 0.1241 0.5075 0.2671
H40 H 0.1079 0.5002 0.3590
C34 C 0.0028(3) 0.3536(3) 0.2721(2)
H41 H -0.0630 0.3711 0.2650
H42 H 0.0082 0.3114 0.2181
C35 C -0.1235(3) 0.1912(3) 0.3052(2)
H43 H -0.1306 0.1494 0.2478
H44 H -0.1871 0.2130 0.3087
C36 C -0.1321(3) 0.1193(3) 0.3606(2)
H45 H -0.1167 0.1632 0.4185
H46 H -0.2106 0.0565 0.3495
C37 C -0.0616(3) -0.0040(3) 0.3877(3)
H47 H -0.1346 -0.0722 0.3636
H48 H -0.0641 0.0245 0.4462
C38 C 0.0392(3) -0.0305(3) 0.3796(3)
H49 H 0.0271 -0.0944 0.4016
H50 H 0.0475 -0.0503 0.3213
C39 C 0.2395(3) 0.0448(3) 0.4283(2)
H51 H 0.2506 0.0146 0.3724
H52 H 0.2287 -0.0104 0.4595
C40 C 0.3427(3) 0.1530(3) 0.4699(2)
H53 H 0.3274 0.1880 0.5228
H54 H 0.4106 0.1397 0.4806
C41 C 0.4681(3) 0.3246(3) 0.4484(3)
H55 H 0.5341 0.3075 0.4555
H56 H 0.4623 0.3664 0.5023
C42 C 0.4868(3) 0.3934(3) 0.3890(3)
H57 H 0.5642 0.4582 0.4051
H58 H 0.4826 0.3482 0.3334
C43 C 0.1894(5) 0.4745(5) 0.5358(3)
H59 H 0.1898 0.4880 0.4810
H60 H 0.2494 0.5421 0.5757
C44 C 0.0765(6) 0.3838(7) 0.6211(4)
H61 H -0.0018 0.3231 0.6171
H62 H 0.1017 0.4338 0.6775
C45 C 0.1622(6) 0.3367(5) 0.5970(4)
H63 H 0.2231 0.3598 0.6441
H64 H 0.1220 0.2542 0.5783
C46 C 0.0789(6) 0.4472(8) 0.5595(5)
H65 H 0.0166 0.4005 0.5121
H66 H 0.0707 0.5154 0.5845
K1 K 0.17867(6) 0.25653(5) 0.37213(4)
O1 O -0.01512(18) 0.28820(18) 0.32868(14)
O2 O 0.20622(18) 0.43208(18) 0.30981(14)
O3 O 0.40030(18) 0.43109(18) 0.38868(14)
O4 O 0.36483(19) 0.22446(18) 0.41760(14)
O5 O 0.14010(19) 0.06545(19) 0.42445(15)
O6 O -0.04854(19) 0.07781(19) 0.34611(15)
O7 O 0.2093(3) 0.3800(3) 0.53425(19)
O8 O 0.2347(3) 0.1991(3) 0.21808(17)
C48 C 0.5467(13) 0.3029(9) 0.1394(7)
H73 H 0.4916 0.3326 0.1572
H74 H 0.5496 0.2972 0.0805
C49 C 0.6275(14) 0.2026(12) 0.1942(12)
H75 H 0.6278 0.2068 0.2531
H76 H 0.6361 0.1358 0.1659
C50 C 0.6762(7) 0.3794(7) 0.1956(5)
H77 H 0.7266 0.4405 0.1733
H78 H 0.6731 0.4092 0.2538
C51 C 0.5191(6) 0.2016(6) 0.1561(5)
H79 H 0.4843 0.1403 0.1048
H80 H 0.4621 0.1888 0.1941
O9 O 0.6855(5) 0.3139(4) 0.2481(4)
C54 C 0.1728(4) 0.2717(5) 0.9023(3)
H89 H 0.1233 0.3076 0.9217
H90 H 0.1217 0.1915 0.8769
C55 C 0.2347(9) 0.3222(10) 0.8381(7)
H91 H 0.2005 0.3650 0.8169
H92 H 0.2397 0.2662 0.7922
C56 C 0.3554(5) 0.4006(6) 0.8970(4)
H93 H 0.4193 0.4142 0.8646
H94 H 0.3578 0.4734 0.9242
C57 C 0.368(3) 0.351(2) 0.9542(16)
H95 H 0.4175 0.4072 1.0051
H96 H 0.4048 0.3015 0.9336
O11 O 0.2464(4) 0.2823(4) 0.9702(2)
H67? H 0.2631 0.5376 0.5338
H68? H 0.1349 0.4569 0.4860
H69? H 0.0681 0.3916 0.6795
H70? H -0.0003 0.3384 0.5863
C47? C 0.1465(16) 0.5067(15) 0.6020(10)
H71? H 0.0936 0.5377 0.5892
H72? H 0.2083 0.5615 0.6478
O10? O 0.7068(17) 0.292(2) 0.1831(15)
C52? C 0.6192(17) 0.3056(11) 0.1191(8)
H81? H 0.6700 0.2807 0.0876
H82? H 0.5823 0.3364 0.0861
C53? C 0.5861(13) 0.2107(10) 0.2219(7)
H83? H 0.6099 0.1502 0.2092
H84? H 0.5405 0.2005 0.2671
H85? H 0.6321 0.4199 0.2181
H86? H 0.7539 0.4345 0.1911
H87? H 0.4537 0.2172 0.1709
H88? H 0.4894 0.1271 0.1163
C58? C 0.351(2) 0.334(2) 0.9660(16)
H97? H 0.3849 0.2812 0.9491
H98? H 0.3950 0.3868 1.0196
H99? H 0.0985 0.2679 0.9173
H100? H 0.1577 0.2050 0.8573
C59? C 0.2424(10) 0.3767(11) 0.8801(9)
H101? H 0.2208 0.3668 0.8212
H102? H 0.2282 0.4382 0.9122
H103? H 0.4048 0.4818 0.9194
H104? H 0.3833 0.3721 0.8479
loop_
_geom_bond_atom_site_label_1
_geom_bond_atom_site_label_2
_geom_bond_site_symmetry_1
_geom_bond_site_symmetry_2
B1 C1 1_555 1_555
C1 C2 1_555 1_555
C2 H1 1_555 1_555
C3 C2 1_555 1_555
H2 C3 1_555 1_555
C4 C3 1_555 1_555
C5 C4 1_555 1_555
H3 C5 1_555 1_555
C6 C5 1_555 1_555
H4 C6 1_555 1_555
C7 C6 1_555 1_555
C8 C7 1_555 1_555
C9 B1 1_555 1_555
C10 C9 1_555 1_555
C11 C10 1_555 1_555
H5 C11 1_555 1_555
C12 C11 1_555 1_555
C13 C12 1_555 1_555
H6 C13 1_555 1_555
C14 C9 1_555 1_555
C15 H7 1_555 1_555
H8 C15 1_555 1_555
H9 C15 1_555 1_555
C16 C10 1_555 1_555
H10 C16 1_555 1_555
H11 C16 1_555 1_555
H12 C16 1_555 1_555
C17 C14 1_555 1_555
H13 C17 1_555 1_555
H14 C17 1_555 1_555
H15 C17 1_555 1_555
C18 C12 1_555 1_555
H16 C18 1_555 1_555
H17 C18 1_555 1_555
H18 C18 1_555 1_555
C19 B1 1_555 1_555
C20 C19 1_555 1_555
C21 C20 1_555 1_555
H19 C21 1_555 1_555
C22 H20 1_555 1_555
C23 C15 1_555 1_555
C24 C20 1_555 1_555
H21 C24 1_555 1_555
H22 C24 1_555 1_555
H23 C24 1_555 1_555
C25 H24 1_555 1_555
H25 C25 1_555 1_555
H26 C25 1_555 1_555
C26 C21 1_555 1_555
C27 H27 1_555 1_555
H28 C27 1_555 1_555
C28 C27 1_555 1_555
H29 C28 1_555 1_555
H30 C28 1_555 1_555
C29 C28 1_555 1_555
H31 C29 1_555 1_555
H32 C29 1_555 1_555
C30 C29 1_555 1_555
H33 C30 1_555 1_555
H34 C30 1_555 1_555
C31 H35 1_555 1_555
H36 C31 1_555 1_555
C32 C31 1_555 1_555
H37 C32 1_555 1_555
H38 C32 1_555 1_555
C33 H39 1_555 1_555
H40 C33 1_555 1_555
C34 C33 1_555 1_555
H41 C34 1_555 1_555
H42 C34 1_555 1_555
C35 H43 1_555 1_555
H44 C35 1_555 1_555
C36 C35 1_555 1_555
H45 C36 1_555 1_555
H46 C36 1_555 1_555
C37 H47 1_555 1_555
H48 C37 1_555 1_555
C38 C37 1_555 1_555
H49 C38 1_555 1_555
H50 C38 1_555 1_555
C39 H51 1_555 1_555
H52 C39 1_555 1_555
C40 C39 1_555 1_555
H53 C40 1_555 1_555
H54 C40 1_555 1_555
C41 H55 1_555 1_555
H56 C41 1_555 1_555
C42 C41 1_555 1_555
H57 C42 1_555 1_555
H58 C42 1_555 1_555
C43 H59 1_555 1_555
H60 C43 1_555 1_555
C44 H61 1_555 1_555
H62 C44 1_555 1_555
C45 C44 1_555 1_555
H63 C45 1_555 1_555
H64 C45 1_555 1_555
C46 C43 1_555 1_555
H65 C46 1_555 1_555
H66 C46 1_555 1_555
K1 O1 1_555 1_555
O1 C34 1_555 1_555
O2 C32 1_555 1_555
O3 C31 1_555 1_555
O4 C40 1_555 1_555
O5 C38 1_555 1_555
O6 C36 1_555 1_555
O7 C43 1_555 1_555
O8 C27 1_555 1_555
C48 H73 1_555 1_555
H74 C48 1_555 1_555
C49 H75 1_555 1_555
H76 C49 1_555 1_555
C50 C48 1_555 1_555
H77 C50 1_555 1_555
H78 C50 1_555 1_555
C51 C48 1_555 1_555
H79 C51 1_555 1_555
H80 C51 1_555 1_555
O9 C49 1_555 1_555
C54 H89 1_555 1_555
H90 C54 1_555 1_555
C55 C54 1_555 1_555
H91 C55 1_555 1_555
H92 C55 1_555 1_555
C56 C55 1_555 1_555
H93 C56 1_555 1_555
H94 C56 1_555 1_555
C57 C56 1_555 1_555
H95 C57 1_555 1_555
H96 C57 1_555 1_555
O11 C54 1_555 1_555
B1A C1A 1_555 1_555
C1A C7 1_555 1_555
C2A C1A 1_555 1_555
H1A C2A 1_555 1_555
C3A C2A 1_555 1_555
H2A C3A 1_555 1_555
C4A C8 1_555 1_555
C5A C4A 1_555 1_555
H3A C5A 1_555 1_555
C6A C5A 1_555 1_555
H4A C6A 1_555 1_555
C7A C1 1_555 1_555
C8A C4 1_555 1_555
C9A B1A 1_555 1_555
C10A C9A 1_555 1_555
C11A C10A 1_555 1_555
H5A C11A 1_555 1_555
C12A C11A 1_555 1_555
C13A C12A 1_555 1_555
H6A C13A 1_555 1_555
C14A C9A 1_555 1_555
C15A H7A 1_555 1_555
H8A C15A 1_555 1_555
H9A C15A 1_555 1_555
C16A C10A 1_555 1_555
H10A C16A 1_555 1_555
H11A C16A 1_555 1_555
H12A C16A 1_555 1_555
C17A C14A 1_555 1_555
H13A C17A 1_555 1_555
H14A C17A 1_555 1_555
H15A C17A 1_555 1_555
C18A C12A 1_555 1_555
H16A C18A 1_555 1_555
H17A C18A 1_555 1_555
H18A C18A 1_555 1_555
C19A B1A 1_555 1_555
C20A C19A 1_555 1_555
C21A C20A 1_555 1_555
H19A C21A 1_555 1_555
C22A H20A 1_555 1_555
C23A C15A 1_555 1_555
C24A C20A 1_555 1_555
H21A C24A 1_555 1_555
H22A C24A 1_555 1_555
H23A C24A 1_555 1_555
C25A H24A 1_555 1_555
H25A C25A 1_555 1_555
H26A C25A 1_555 1_555
C26A C21A 1_555 1_555
C8 C8A 1_555 1_555
C13 C14 1_555 1_555
C19 C23 1_555 1_555
C22 C23 1_555 1_555
C22 C26 1_555 1_555
C25 C26 1_555 1_555
C30 O8 1_555 1_555
C33 O2 1_555 1_555
C35 O1 1_555 1_555
C37 O6 1_555 1_555
C39 O5 1_555 1_555
C41 O4 1_555 1_555
C42 O3 1_555 1_555
C44 C46 1_555 1_555
C45 O7 1_555 1_555
K1 O2 1_555 1_555
K1 O3 1_555 1_555
K1 O4 1_555 1_555
K1 O5 1_555 1_555
K1 O6 1_555 1_555
K1 O7 1_555 1_555
K1 O8 1_555 1_555
C49 C51 1_555 1_555
C50 O9 1_555 1_555
C57 O11 1_555 1_555
C3A C4A 1_555 1_555
C6A C7A 1_555 1_555
C7A C8A 1_555 1_555
C13A C14A 1_555 1_555
C19A C23A 1_555 1_555
C22A C23A 1_555 1_555
C22A C26A 1_555 1_555
C25A C26A 1_555 1_555

#END
