
#######################################################################
#
#                 Cambridge Crystallographic Data Centre
#                                CCDC 
#
#######################################################################
#
# If this CIF has been generated from an entry in the Cambridge 
# Structural Database, then it will include bibliographic, chemical, 
# crystal, experimental, refinement or atomic coordinate data resulting 
# from the CCDC's data processing and validation procedures.
#
#######################################################################

data_ZEFFAU
_chemical_formula_moiety         'C45 H50 N2'
_chemical_name_systematic        
N,N'-bis(2,6-diisopropylphenyl)-1,2,3-triphenylpropane-1,3-diimine
_symmetry_cell_setting           triclinic
_symmetry_space_group_name_H-M   'P -1'
_symmetry_Int_Tables_number      2
_space_group_name_Hall           '-P 1'
loop_
_symmetry_equiv_pos_site_id
_symmetry_equiv_pos_as_xyz
1 x,y,z
2 -x,-y,-z
_cell_length_a                   10.697(5)
_cell_length_b                   11.622(6)
_cell_length_c                   16.375(9)
_cell_angle_alpha                97.290(10)
_cell_angle_beta                 102.579(10)
_cell_angle_gamma                106.052(10)
_cell_volume                     1871.04
_exptl_crystal_colour            yellow
_exptl_crystal_description       block
_cell_formula_units_Z            2
loop_
_atom_site_label
_atom_site_type_symbol
_atom_site_fract_x
_atom_site_fract_y
_atom_site_fract_z
N1 N 0.7957(3) 0.1729(2) 0.12541(16)
C1 C 0.9155(3) 0.1728(3) 0.1368(2)
N2 N 1.0743(2) 0.2933(2) 0.29998(17)
C2 C 0.9646(3) 0.1015(3) 0.2022(2)
H1 H 1.0020 0.0450 0.1736
C3 C 1.0783(3) 0.1855(3) 0.27737(19)
C4 C 1.0158(3) 0.2336(3) 0.0922(2)
C5 C 1.1010(4) 0.1749(3) 0.0658(3)
H2 H 1.0971 0.0979 0.0773
C6 C 1.1911(4) 0.2288(5) 0.0228(3)
H3 H 1.2464 0.1874 0.0049
C7 C 1.1999(4) 0.3421(5) 0.0064(3)
H4 H 1.2620 0.3789 -0.0218
C8 C 1.1164(4) 0.4015(4) 0.0318(3)
H5 H 1.1218 0.4789 0.0205
C9 C 1.0249(3) 0.3479(3) 0.0737(2)
H6 H 0.9682 0.3890 0.0900
C10 C 0.8523(3) 0.0248(3) 0.2344(2)
C11 C 0.7937(4) 0.0783(4) 0.2880(3)
H7 H 0.8210 0.1631 0.3034
C12 C 0.6955(4) 0.0102(5) 0.3197(3)
H8 H 0.6595 0.0490 0.3575
C13 C 0.6516(5) -0.1112(6) 0.2967(4)
H9 H 0.5838 -0.1566 0.3177
C14 C 0.7050(5) -0.1692(4) 0.2427(3)
H10 H 0.6739 -0.2540 0.2268
C15 C 0.8074(4) -0.1007(4) 0.2109(3)
H11 H 0.8448 -0.1400 0.1742
C16 C 1.1829(3) 0.1320(3) 0.3179(2)
C17 C 1.1476(4) 0.0217(4) 0.3416(3)
H12 H 1.0568 -0.0211 0.3325
C18 C 1.2439(4) -0.0276(4) 0.3788(3)
H13 H 1.2183 -0.1012 0.3968
C19 C 1.3760(4) 0.0321(5) 0.3887(3)
H14 H 1.4413 -0.0015 0.4127
C20 C 1.4133(4) 0.1401(4) 0.3639(3)
H15 H 1.5042 0.1807 0.3711
C21 C 1.3172(4) 0.1905(3) 0.3281(3)
H16 H 1.3436 0.2645 0.3107
C22 C 0.7295(3) 0.2331(3) 0.0682(2)
C23 C 0.6960(3) 0.3309(3) 0.1053(2)
C24 C 0.6113(4) 0.3778(3) 0.0524(3)
H17 H 0.5871 0.4428 0.0761
C25 C 0.5619(4) 0.3314(4) -0.0337(3)
H18 H 0.5049 0.3641 -0.0680
C26 C 0.5983(4) 0.2364(3) -0.0680(2)
H19 H 0.5653 0.2051 -0.1264
C27 C 0.6821(3) 0.1849(3) -0.0195(2)
C28 C 0.7146(3) 0.0777(3) -0.0617(2)
H20 H 0.7776 0.0557 -0.0181
C29 C 0.5893(4) -0.0329(4) -0.0977(3)
H21 H 0.5510 -0.0571 -0.0523
H22 H 0.6132 -0.0990 -0.1246
H23 H 0.5245 -0.0125 -0.1391
C30 C 0.7840(5) 0.1125(4) -0.1312(3)
H24 H 0.7224 0.1302 -0.1762
H25 H 0.8114 0.0459 -0.1536
H26 H 0.8618 0.1834 -0.1074
C31 C 0.7504(4) 0.3827(3) 0.1997(3)
H27 H 0.8312 0.3588 0.2189
C32 C 0.6504(6) 0.3240(4) 0.2469(3)
H28 H 0.5714 0.3490 0.2324
H29 H 0.6909 0.3491 0.3073
H30 H 0.6256 0.2367 0.2310
C33 C 0.7936(6) 0.5202(4) 0.2233(4)
H31 H 0.8532 0.5547 0.1903
H32 H 0.8394 0.5464 0.2829
H33 H 0.7155 0.5471 0.2115
C34 C 1.1701(3) 0.3742(3) 0.3745(2)
C35 C 1.1641(4) 0.3556(3) 0.4557(2)
C36 C 1.2587(5) 0.4398(5) 0.5250(3)
H34 H 1.2583 0.4279 0.5800
C37 C 1.3504(5) 0.5379(5) 0.5139(4)
H35 H 1.4138 0.5919 0.5612
C38 C 1.3511(4) 0.5587(4) 0.4339(4)
H36 H 1.4142 0.6279 0.4276
C39 C 1.2599(4) 0.4789(3) 0.3616(3)
C40 C 1.2592(5) 0.5059(4) 0.2747(3)
H37 H 1.1976 0.4335 0.2329
C41 C 1.2064(7) 0.6103(6) 0.2607(5)
H38 H 1.1186 0.5932 0.2708
H39 H 1.2003 0.6212 0.2030
H40 H 1.2665 0.6835 0.2994
C42 C 1.3955(6) 0.5307(6) 0.2565(5)
H41 H 1.4595 0.5990 0.2982
H42 H 1.3892 0.5491 0.2005
H43 H 1.4246 0.4599 0.2594
C43 C 1.0554(4) 0.2529(4) 0.4722(3)
H44 H 1.0166 0.1908 0.4193
C44 C 0.9431(5) 0.3019(5) 0.4894(4)
H45 H 0.9766 0.3605 0.5423
H46 H 0.8689 0.2356 0.4930
H47 H 0.9133 0.3405 0.4437
C45 C 1.1076(7) 0.1900(5) 0.5428(3)
H48 H 1.1810 0.1644 0.5312
H49 H 1.0361 0.1201 0.5450
H50 H 1.1383 0.2462 0.5967
loop_
_geom_bond_atom_site_label_1
_geom_bond_atom_site_label_2
_geom_bond_site_symmetry_1
_geom_bond_site_symmetry_2
N1 C1 1_555 1_555
C1 C2 1_555 1_555
N2 C3 1_555 1_555
C2 H1 1_555 1_555
C3 C2 1_555 1_555
C4 C1 1_555 1_555
C5 C4 1_555 1_555
H2 C5 1_555 1_555
C6 C5 1_555 1_555
H3 C6 1_555 1_555
C7 C6 1_555 1_555
H4 C7 1_555 1_555
C8 C7 1_555 1_555
H5 C8 1_555 1_555
C9 C4 1_555 1_555
H6 C9 1_555 1_555
C10 C2 1_555 1_555
C11 C10 1_555 1_555
H7 C11 1_555 1_555
C12 C11 1_555 1_555
H8 C12 1_555 1_555
C13 C12 1_555 1_555
H9 C13 1_555 1_555
C14 C13 1_555 1_555
H10 C14 1_555 1_555
C15 C10 1_555 1_555
H11 C15 1_555 1_555
C16 C3 1_555 1_555
C17 C16 1_555 1_555
H12 C17 1_555 1_555
C18 C17 1_555 1_555
H13 C18 1_555 1_555
C19 C18 1_555 1_555
H14 C19 1_555 1_555
C20 C19 1_555 1_555
H15 C20 1_555 1_555
C21 C16 1_555 1_555
H16 C21 1_555 1_555
C22 N1 1_555 1_555
C23 C22 1_555 1_555
C24 C23 1_555 1_555
H17 C24 1_555 1_555
C25 C24 1_555 1_555
H18 C25 1_555 1_555
C26 C25 1_555 1_555
H19 C26 1_555 1_555
C27 C22 1_555 1_555
C28 C27 1_555 1_555
H20 C28 1_555 1_555
C29 C28 1_555 1_555
H21 C29 1_555 1_555
H22 C29 1_555 1_555
H23 C29 1_555 1_555
C30 C28 1_555 1_555
H24 C30 1_555 1_555
H25 C30 1_555 1_555
H26 C30 1_555 1_555
C31 C23 1_555 1_555
H27 C31 1_555 1_555
C32 C31 1_555 1_555
H28 C32 1_555 1_555
H29 C32 1_555 1_555
H30 C32 1_555 1_555
C33 C31 1_555 1_555
H31 C33 1_555 1_555
H32 C33 1_555 1_555
H33 C33 1_555 1_555
C34 N2 1_555 1_555
C35 C34 1_555 1_555
C36 C35 1_555 1_555
H34 C36 1_555 1_555
C37 C36 1_555 1_555
H35 C37 1_555 1_555
C38 C37 1_555 1_555
H36 C38 1_555 1_555
C39 C34 1_555 1_555
C40 C39 1_555 1_555
H37 C40 1_555 1_555
C41 C40 1_555 1_555
H38 C41 1_555 1_555
H39 C41 1_555 1_555
H40 C41 1_555 1_555
C42 C40 1_555 1_555
H41 C42 1_555 1_555
H42 C42 1_555 1_555
H43 C42 1_555 1_555
C43 C35 1_555 1_555
H44 C43 1_555 1_555
C44 C43 1_555 1_555
H45 C44 1_555 1_555
H46 C44 1_555 1_555
H47 C44 1_555 1_555
C45 C43 1_555 1_555
H48 C45 1_555 1_555
H49 C45 1_555 1_555
H50 C45 1_555 1_555
C8 C9 1_555 1_555
C14 C15 1_555 1_555
C20 C21 1_555 1_555
C26 C27 1_555 1_555
C38 C39 1_555 1_555

#END
