
#######################################################################
#
#                 Cambridge Crystallographic Data Centre
#                                CCDC 
#
#######################################################################
#
# If this CIF has been generated from an entry in the Cambridge 
# Structural Database, then it will include bibliographic, chemical, 
# crystal, experimental, refinement or atomic coordinate data resulting 
# from the CCDC's data processing and validation procedures.
#
#######################################################################

data_ZEGBOE
_chemical_formula_moiety         'C4 H12 N2 2+,2(C8 H5 O4 1-)'
_chemical_name_systematic        'Piperazinediium bis(2-carboxybenzoate)'
_symmetry_cell_setting           orthorhombic
_symmetry_space_group_name_H-M   'P b c a'
_symmetry_Int_Tables_number      61
_space_group_name_Hall           '-P 2ac 2ab'
loop_
_symmetry_equiv_pos_site_id
_symmetry_equiv_pos_as_xyz
1 x,y,z
2 1/2-x,-y,1/2+z
3 -x,1/2+y,1/2-z
4 1/2+x,1/2-y,-z
5 -x,-y,-z
6 1/2+x,y,1/2-z
7 x,1/2-y,1/2+z
8 1/2-x,1/2+y,z
_cell_length_a                   10.3173(14)
_cell_length_b                   7.4516(12)
_cell_length_c                   26.221(4)
_cell_angle_alpha                90
_cell_angle_beta                 90
_cell_angle_gamma                90
_cell_volume                     2015.88
_exptl_crystal_colour            colorless
_exptl_crystal_description       block
_cell_formula_units_Z            4
loop_
_atom_site_label
_atom_site_type_symbol
_atom_site_fract_x
_atom_site_fract_y
_atom_site_fract_z
O1 O 0.81749(14) 0.1473(2) 0.41960(5)
O2 O 1.10654(15) -0.00887(19) 0.44320(6)
O3 O 0.96796(15) -0.1998(2) 0.40876(6)
O4 O 0.71961(15) 0.2406(2) 0.34904(6)
H1 H 0.6572 0.2480 0.3683
C1 C 0.8197(2) 0.1811(3) 0.37417(8)
C2 C 1.03719(19) -0.0584(3) 0.40773(8)
C3 C 1.04019(19) 0.0491(3) 0.35879(8)
C4 C 0.93890(19) 0.1597(3) 0.34262(8)
C5 C 1.1612(3) 0.1321(4) 0.28377(9)
H2 H 1.2352 0.1208 0.2638
C6 C 0.9522(2) 0.2577(3) 0.29746(8)
H3 H 0.8858 0.3336 0.2870
C7 C 1.1512(2) 0.0369(3) 0.32894(9)
H4 H 1.2194 -0.0359 0.3394
C8 C 1.0627(3) 0.2427(4) 0.26839(9)
H5 H 1.0705 0.3077 0.2383
N1 N 0.48393(18) 0.1877(2) 0.50763(7)
H6 H 0.5226 0.2323 0.4796
H7 H 0.4547 0.2806 0.5263
C9 C 0.3729(2) 0.0732(3) 0.49219(9)
H8 H 0.3129 0.1428 0.4717
H9 H 0.3273 0.0315 0.5223
C10 C 0.5799(2) 0.0842(3) 0.53787(9)
H10 H 0.5401 0.0429 0.5693
H11 H 0.6525 0.1609 0.5467
N1D N 0.51607(18) -0.1877(2) 0.49237(7)
H6D H 0.4774 -0.2323 0.5204
H7D H 0.5453 -0.2806 0.4737
C9D C 0.6271(2) -0.0732(3) 0.50781(9)
H8D H 0.6871 -0.1428 0.5283
H9D H 0.6727 -0.0315 0.4777
C10D C 0.4201(2) -0.0842(3) 0.46213(9)
H10D H 0.4599 -0.0429 0.4307
H11D H 0.3475 -0.1609 0.4533
loop_
_geom_bond_atom_site_label_1
_geom_bond_atom_site_label_2
_geom_bond_site_symmetry_1
_geom_bond_site_symmetry_2
O1 C1 1_555 1_555
O2 C2 1_555 1_555
O3 C2 1_555 1_555
O4 H1 1_555 1_555
C1 O4 1_555 1_555
C2 C3 1_555 1_555
C3 C4 1_555 1_555
C4 C1 1_555 1_555
C5 H2 1_555 1_555
C6 C4 1_555 1_555
H3 C6 1_555 1_555
C7 C3 1_555 1_555
H4 C7 1_555 1_555
C8 C5 1_555 1_555
H5 C8 1_555 1_555
N1 H6 1_555 1_555
H7 N1 1_555 1_555
C9 N1 1_555 1_555
H8 C9 1_555 1_555
H9 C9 1_555 1_555
C10 N1 1_555 1_555
H10 C10 1_555 1_555
H11 C10 1_555 1_555
N1D H6D 1_555 1_555
H7D N1D 1_555 1_555
C9D C10 1_555 1_555
H8D C9D 1_555 1_555
H9D C9D 1_555 1_555
C10D C9 1_555 1_555
H10D C10D 1_555 1_555
H11D C10D 1_555 1_555
C5 C7 1_555 1_555
C6 C8 1_555 1_555
N1D C9D 1_555 1_555
N1D C10D 1_555 1_555

#END
