
#######################################################################
#
#                 Cambridge Crystallographic Data Centre
#                                CCDC 
#
#######################################################################
#
# If this CIF has been generated from an entry in the Cambridge 
# Structural Database, then it will include bibliographic, chemical, 
# crystal, experimental, refinement or atomic coordinate data resulting 
# from the CCDC's data processing and validation procedures.
#
#######################################################################

data_ZEGWAM
_chemical_formula_moiety         '2(C2 H6 N5 1+),C12 H6 Li2 N6 O18 2-,2(H2 O1)'
_chemical_name_systematic        
'bis(4,5-diamino-4H-1,2,4-triazol-1-ium) bis(2,4,6-trinitrobenzene-1,3-diolato)-di-lithium dihydrate'
_symmetry_cell_setting           triclinic
_symmetry_space_group_name_H-M   'P -1'
_symmetry_Int_Tables_number      2
_space_group_name_Hall           '-P 1'
loop_
_symmetry_equiv_pos_site_id
_symmetry_equiv_pos_as_xyz
1 x,y,z
2 -x,-y,-z
_cell_length_a                   6.974(2)
_cell_length_b                   8.851(3)
_cell_length_c                   12.487(4)
_cell_angle_alpha                90.239(5)
_cell_angle_beta                 104.528(4)
_cell_angle_gamma                95.036(5)
_cell_volume                     742.983
_exptl_crystal_colour            brown
_cell_formula_units_Z            1
loop_
_atom_site_label
_atom_site_type_symbol
_atom_site_fract_x
_atom_site_fract_y
_atom_site_fract_z
Li1 Li 0.5063(4) 0.5070(3) 0.38957(17)
O1 O 0.56358(15) 0.64863(10) 0.51189(7)
O2 O 0.75567(13) 1.13142(9) 0.38133(7)
O3 O 0.97691(16) 1.32111(11) 0.54134(8)
O4 O 0.9863(3) 1.26681(15) 0.70836(9)
O5 O 0.81468(16) 0.81206(11) 0.82767(7)
O6 O 0.70149(16) 0.61098(11) 0.72682(8)
O7 O 0.74358(15) 0.43714(11) 0.35638(7)
H1 H 0.841(3) 0.507(2) 0.3850(16)
H2 H 0.771(3) 0.350(2) 0.3867(16)
N1 N 0.56326(15) 0.83593(11) 0.33078(8)
N2 N 0.93594(16) 1.23223(12) 0.60959(9)
N3 N 0.75232(15) 0.74866(12) 0.73461(8)
C1 C 0.65106(17) 0.77979(12) 0.52875(9)
C2 C 0.65849(16) 0.88629(12) 0.44160(9)
C3 C 0.74976(16) 1.04187(12) 0.45822(9)
C4 C 0.83685(16) 1.08436(13) 0.57488(9)
C5 C 0.83314(17) 0.98548(13) 0.65895(9)
H3 H 0.8925 1.0195 0.7331
C6 C 0.74617(17) 0.83850(13) 0.63950(9)
O8 O 0.5317(9) 0.6987(2) 0.30457(17)
O9 O 0.5084(3) 0.9304(2) 0.25740(19)
Li1A Li 0.4937(4) 0.4930(3) 0.61043(17)
O1A O 0.43642(15) 0.35137(10) 0.48811(7)
O2A O 0.24433(13) -0.13142(9) 0.61867(7)
O3A O 0.02309(16) -0.32111(11) 0.45866(8)
O4A O 0.0137(3) -0.26681(15) 0.29164(9)
O5A O 0.18532(16) 0.18794(11) 0.17233(7)
O6A O 0.29851(16) 0.38902(11) 0.27318(8)
O7A O 0.25642(15) 0.56286(11) 0.64362(7)
H1A H 0.159(3) 0.493(2) 0.6150(16)
H2A H 0.229(3) 0.650(2) 0.6133(16)
N1A N 0.43674(15) 0.16407(11) 0.66922(8)
N2A N 0.06406(16) -0.23223(12) 0.39041(9)
N3A N 0.24768(15) 0.25134(12) 0.26539(8)
C1A C 0.34894(17) 0.22021(12) 0.47125(9)
C2A C 0.34151(16) 0.11371(12) 0.55840(9)
C3A C 0.25024(16) -0.04187(12) 0.54178(9)
C4A C 0.16315(16) -0.08436(13) 0.42512(9)
C5A C 0.16686(17) 0.01452(13) 0.34105(9)
H3A H 0.1075 -0.0195 0.2669
C6A C 0.25383(17) 0.16150(13) 0.36050(9)
O8A O 0.4683(9) 0.3013(2) 0.69543(17)
O9A O 0.4916(3) 0.0696(2) 0.74260(19)
O12 O 0.78527(18) 0.70028(12) 0.04209(9)
H4 H 0.762(3) 0.787(3) 0.0652(17)
H5 H 0.767(3) 0.711(2) -0.0270(18)
N4 N 0.74630(18) 1.02528(13) 0.07706(9)
N5 N 0.72104(17) 1.14309(12) 0.14434(9)
N6 N 0.75410(16) 1.24367(12) -0.00687(8)
N7 N 0.7772(2) 1.35898(13) -0.08071(9)
N8 N 0.7115(2) 1.41210(13) 0.13138(10)
C7 C 0.7656(2) 1.09067(15) -0.01296(10)
H6 H 0.7852 1.0385 -0.0755
C8 C 0.72780(18) 1.27666(14) 0.09457(9)
H7 H 0.711(3) 1.124(2) 0.2107(16)
H8 H 0.896(3) 1.356(2) -0.0939(16)
H9 H 0.687(3) 1.340(2) -0.1454(15)
H10 H 0.726(3) 1.495(2) 0.0921(16)
H11 H 0.714(3) 1.425(2) 0.2042(16)
O10? O 0.456(2) 0.7120(10) 0.3170(7)
O11? O 0.601(6) 0.898(2) 0.2547(7)
loop_
_geom_bond_atom_site_label_1
_geom_bond_atom_site_label_2
_geom_bond_site_symmetry_1
_geom_bond_site_symmetry_2
Li1 O1 1_555 1_555
O1 C1 1_555 1_555
O2 C3 1_555 1_555
O3 N2 1_555 1_555
O4 N2 1_555 1_555
O5 N3 1_555 1_555
O6 N3 1_555 1_555
O7 Li1 1_555 1_555
H1 O7 1_555 1_555
H2 O7 1_555 1_555
N1 C2 1_555 1_555
N2 C4 1_555 1_555
N3 C6 1_555 1_555
C1 C2 1_555 1_555
C2 C3 1_555 1_555
C3 C4 1_555 1_555
C4 C5 1_555 1_555
C5 H3 1_555 1_555
C6 C1 1_555 1_555
O8 Li1 1_555 1_555
O9 N1 1_555 1_555
O12 H4 1_555 1_555
H5 O12 1_555 1_555
N4 N5 1_555 1_555
N5 C8 1_555 1_555
N6 N7 1_555 1_555
N7 H8 1_555 1_555
N8 C8 1_555 1_555
C7 N4 1_555 1_555
H6 C7 1_555 1_555
C8 N6 1_555 1_555
H7 N5 1_555 1_555
H9 N7 1_555 1_555
H10 N8 1_555 1_555
H11 N8 1_555 1_555
Li1A O1 1_555 1_555
O1A Li1 1_555 1_555
O2A C3A 1_555 1_555
O3A N2A 1_555 1_555
O4A N2A 1_555 1_555
O5A N3A 1_555 1_555
O6A Li1 1_555 1_555
O7A Li1A 1_555 1_555
H1A O7A 1_555 1_555
H2A O7A 1_555 1_555
N1A C2A 1_555 1_555
N2A C4A 1_555 1_555
N3A O6A 1_555 1_555
C1A O1A 1_555 1_555
C2A C1A 1_555 1_555
C3A C2A 1_555 1_555
C4A C3A 1_555 1_555
C5A C4A 1_555 1_555
H3A C5A 1_555 1_555
C6A N3A 1_555 1_555
O8A Li1A 1_555 1_555
O9A N1A 1_555 1_555
O6 Li1A 1_555 1_555
N1 O8 1_555 1_555
C5 C6 1_555 1_555
N6 C7 1_555 1_555
Li1A O1A 1_555 1_555
N1A O8A 1_555 1_555
C1A C6A 1_555 1_555
C5A C6A 1_555 1_555

#END
