
#######################################################################
#
#                 Cambridge Crystallographic Data Centre
#                                CCDC 
#
#######################################################################
#
# If this CIF has been generated from an entry in the Cambridge 
# Structural Database, then it will include bibliographic, chemical, 
# crystal, experimental, refinement or atomic coordinate data resulting 
# from the CCDC's data processing and validation procedures.
#
#######################################################################

data_ZEHDUN
_chemical_formula_moiety         'C21 H19 Br1 Cl1 N3 O4'
_chemical_name_systematic        
'4-(1-(4-Bromophenyl)-2-nitropropyl)-1-(4-chlorophenyl)-3-methyl-1H-pyrazol-5-yl acetate'
_symmetry_cell_setting           monoclinic
_symmetry_space_group_name_H-M   'P 21/c'
_symmetry_Int_Tables_number      14
_space_group_name_Hall           '-P 2ybc'
loop_
_symmetry_equiv_pos_site_id
_symmetry_equiv_pos_as_xyz
1 x,y,z
2 -x,1/2+y,1/2-z
3 -x,-y,-z
4 x,1/2-y,1/2+z
_cell_length_a                   11.936(2)
_cell_length_b                   9.6365(17)
_cell_length_c                   21.342(3)
_cell_angle_alpha                90
_cell_angle_beta                 116.511(7)
_cell_angle_gamma                90
_cell_volume                     2196.66
_cell_formula_units_Z            4
loop_
_atom_site_label
_atom_site_type_symbol
_atom_site_fract_x
_atom_site_fract_y
_atom_site_fract_z
Br1 Br 0.20473(4) -0.23067(5) -0.10822(2)
Cl1 Cl -0.22659(9) 0.65218(12) 0.17205(6)
O1 O 0.0527(2) 0.1755(3) 0.03629(12)
O2 O 0.19966(19) 0.2073(2) 0.14774(10)
O3 O 0.6111(3) 0.3647(4) 0.24479(17)
O4 O 0.5003(4) 0.2723(4) 0.29249(17)
N1 N 0.1854(2) 0.4470(3) 0.11398(12)
N2 N 0.2485(2) 0.5399(3) 0.09348(13)
N3 N 0.5404(3) 0.2752(4) 0.24906(18)
C1 C 0.0842(3) 0.4925(3) 0.12721(15)
C2 C -0.0002(3) 0.5883(3) 0.08225(16)
H1 H 0.0076 0.6187 0.0430
C3 C -0.0954(3) 0.6384(4) 0.09571(18)
H2 H -0.1523 0.7027 0.0658
C4 C -0.1048(3) 0.5915(4) 0.15430(18)
C5 C -0.0215(3) 0.4946(4) 0.19925(17)
H3 H -0.0301 0.4635 0.2381
C6 C 0.0737(3) 0.4450(4) 0.18604(15)
H4 H 0.1304 0.3806 0.2159
C7 C 0.2745(3) -0.0918(4) -0.03790(17)
C8 C 0.3239(3) 0.0286(4) -0.05122(17)
H5 H 0.3200 0.0436 -0.0952
C9 C 0.3786(3) 0.1258(4) 0.00093(16)
H6 H 0.4126 0.2060 -0.0079
C10 C 0.3837(3) 0.1055(3) 0.06681(15)
C11 C 0.3315(3) -0.0149(4) 0.07858(17)
H7 H 0.3331 -0.0291 0.1221
C12 C 0.2770(3) -0.1142(4) 0.02648(18)
H8 H 0.2427 -0.1945 0.0349
C13 C 0.4405(3) 0.2192(3) 0.12181(16)
H9 H 0.5073 0.2633 0.1141
C14 C 0.0716(3) 0.0046(4) 0.12237(19)
H10 H 0.0110 0.0247 0.1392
H11 H 0.1466 -0.0304 0.1601
H12 H 0.0382 -0.0638 0.0859
C15 C 0.1007(3) 0.1333(4) 0.09428(16)
C16 C 0.3444(3) 0.4704(3) 0.09320(16)
C17 C 0.4342(3) 0.5413(4) 0.0713(2)
H13 H 0.4080 0.5254 0.0223
H14 H 0.5168 0.5044 0.0979
H15 H 0.4348 0.6392 0.0798
C18 C 0.3459(3) 0.3299(3) 0.11357(14)
C19 C 0.2427(3) 0.3206(3) 0.12614(15)
C20 C 0.5009(3) 0.1587(4) 0.19641(15)
H16 H 0.4388 0.1014 0.2027
C21 C 0.6175(3) 0.0698(4) 0.21230(19)
H17 H 0.6782 0.1243 0.2052
H18 H 0.5943 -0.0091 0.1816
H19 H 0.6528 0.0387 0.2600
loop_
_geom_bond_atom_site_label_1
_geom_bond_atom_site_label_2
_geom_bond_site_symmetry_1
_geom_bond_site_symmetry_2
Br1 C7 1_555 1_555
Cl1 C4 1_555 1_555
O1 C15 1_555 1_555
O2 C15 1_555 1_555
O3 N3 1_555 1_555
O4 N3 1_555 1_555
N1 N2 1_555 1_555
N2 C16 1_555 1_555
N3 C20 1_555 1_555
C1 N1 1_555 1_555
C2 C1 1_555 1_555
H1 C2 1_555 1_555
C3 C2 1_555 1_555
H2 C3 1_555 1_555
C4 C3 1_555 1_555
C5 C4 1_555 1_555
H3 C5 1_555 1_555
C6 C1 1_555 1_555
H4 C6 1_555 1_555
C7 C8 1_555 1_555
C8 H5 1_555 1_555
C9 C8 1_555 1_555
H6 C9 1_555 1_555
C10 C9 1_555 1_555
C11 C10 1_555 1_555
H7 C11 1_555 1_555
C12 C7 1_555 1_555
H8 C12 1_555 1_555
C13 C10 1_555 1_555
H9 C13 1_555 1_555
C14 H10 1_555 1_555
H11 C14 1_555 1_555
H12 C14 1_555 1_555
C15 C14 1_555 1_555
C16 C17 1_555 1_555
C17 H13 1_555 1_555
H14 C17 1_555 1_555
H15 C17 1_555 1_555
C18 C13 1_555 1_555
C19 O2 1_555 1_555
C20 C13 1_555 1_555
H16 C20 1_555 1_555
C21 C20 1_555 1_555
H17 C21 1_555 1_555
H18 C21 1_555 1_555
H19 C21 1_555 1_555
N1 C19 1_555 1_555
C5 C6 1_555 1_555
C11 C12 1_555 1_555
C16 C18 1_555 1_555
C18 C19 1_555 1_555

#END
