
#######################################################################
#
#                 Cambridge Crystallographic Data Centre
#                                CCDC 
#
#######################################################################
#
# If this CIF has been generated from an entry in the Cambridge 
# Structural Database, then it will include bibliographic, chemical, 
# crystal, experimental, refinement or atomic coordinate data resulting 
# from the CCDC's data processing and validation procedures.
#
#######################################################################

data_ZEHGIC
_chemical_formula_moiety         'C39 H36 F6 O6'
_chemical_name_systematic        
2-(3,5-bis(Trifluoromethyl)phenyl)-4,7,10,13,16,19-hexaoxa-3(1,2),1(2,1)-dinaphthenacyclononadecaphane
_symmetry_cell_setting           triclinic
_symmetry_space_group_name_H-M   'P -1'
_symmetry_Int_Tables_number      2
_space_group_name_Hall           '-P 1'
loop_
_symmetry_equiv_pos_site_id
_symmetry_equiv_pos_as_xyz
1 x,y,z
2 -x,-y,-z
_cell_length_a                   10.737(2)
_cell_length_b                   13.633(3)
_cell_length_c                   14.052(3)
_cell_angle_alpha                117.952(9)
_cell_angle_beta                 90.485(10)
_cell_angle_gamma                107.614(10)
_cell_volume                     1703.94
_exptl_crystal_colour            colorless
_cell_formula_units_Z            2
loop_
_atom_site_label
_atom_site_type_symbol
_atom_site_fract_x
_atom_site_fract_y
_atom_site_fract_z
O1 O 0.2283(2) 0.26060(14) 0.39114(13)
C1 C 0.2567(3) 0.3691(2) 0.4891(2)
C2 C 0.1698(3) 0.3439(3) 0.5640(2)
O2 O 0.2218(2) 0.4391(2) 0.6695(2)
C3 C 0.1554(3) 0.4299(4) 0.7524(3)
C4 C 0.1915(4) 0.3542(4) 0.7896(3)
O3 O 0.3300(2) 0.3968(2) 0.8227(2)
C5 C 0.3752(6) 0.3229(9) 0.8507(6)
C6 C 0.5229(4) 0.3665(4) 0.8694(3)
O6 O 0.5759(2) 0.3216(2) 0.7717(2)
C9 C 0.5709(3) 0.3755(2) 0.7079(2)
C10 C 0.6476(2) 0.3317(2) 0.6168(2)
O7 O 0.5879(2) 0.2109(2) 0.53526(13)
C11 C 0.4727(2) 0.1898(2) 0.4677(2)
C12 C 0.4278(2) 0.0635(2) 0.3763(2)
O8 O 0.3026(2) 0.04518(14) 0.32236(13)
C13 C 0.2345(2) -0.0617(2) 0.2326(2)
C14 C 0.1363(2) -0.0632(2) 0.1667(2)
C15 C 0.1183(2) 0.0497(2) 0.1812(2)
C16 C 0.2486(2) 0.1518(2) 0.2069(2)
C17 C 0.2940(2) 0.2559(2) 0.3069(2)
C18 C 0.4072(2) 0.3515(2) 0.3222(2)
C19 C 0.4786(2) 0.3417(2) 0.2407(2)
C20 C 0.4418(2) 0.2366(2) 0.1394(2)
C21 C 0.5177(3) 0.2235(3) 0.0551(2)
C22 C 0.4821(3) 0.1226(3) -0.0422(3)
C23 C 0.3670(3) 0.0279(3) -0.0615(2)
C24 C 0.2908(2) 0.0360(2) 0.0173(2)
C25 C 0.3246(2) 0.1403(2) 0.1215(2)
C26 C 0.2595(2) -0.1657(2) 0.2101(2)
C27 C 0.1871(2) -0.2707(2) 0.1213(2)
C28 C 0.0814(2) -0.2797(2) 0.0533(2)
C29 C 0.0035(3) -0.3889(2) -0.0375(2)
C30 C -0.1031(3) -0.3986(2) -0.0990(2)
C31 C -0.1366(3) -0.2980(2) -0.0716(2)
C32 C -0.0613(2) -0.1900(2) 0.0138(2)
C33 C 0.0525(2) -0.1755(2) 0.0787(2)
C34 C 0.0152(2) 0.0858(2) 0.2518(2)
C35 C -0.0289(2) 0.1713(2) 0.2511(2)
C36 C -0.1201(2) 0.2096(2) 0.3158(2)
C37 C -0.1720(2) 0.1594(2) 0.3790(2)
C38 C -0.1308(2) 0.0712(2) 0.3773(2)
C39 C -0.0372(2) 0.0354(2) 0.3146(2)
C40 C -0.1577(3) 0.3080(3) 0.3195(3)
F1 F -0.2555(6) 0.3273(5) 0.3672(5)
F2 F -0.0556(4) 0.4103(2) 0.3657(5)
F3 F -0.1896(5) 0.2931(3) 0.2206(2)
C41 C -0.1869(3) 0.0199(3) 0.4468(3)
F7 F -0.1423(2) -0.0635(2) 0.4401(2)
F8 F -0.1622(2) 0.1001(2) 0.5518(2)
F9 F -0.3192(2) -0.0303(2) 0.4195(2)
H1 H 0.2374(3) 0.4272(2) 0.4747(2)
H2 H 0.3506(3) 0.4007(2) 0.5223(2)
H3 H 0.0785(3) 0.3352(3) 0.5420(2)
H4 H 0.1691(3) 0.2705(3) 0.5610(2)
H5 H 0.0594(3) 0.3971(4) 0.7254(3)
H6 H 0.1758(3) 0.5095(4) 0.8153(3)
H7 H 0.1473(4) 0.3562(4) 0.8509(3)
H8 H 0.1620(4) 0.2720(4) 0.7297(3)
H9 H 0.3399(6) 0.2406(9) 0.7911(6)
H10 H 0.3440(6) 0.3261(9) 0.9170(6)
H11 H 0.5559(4) 0.4531(4) 0.9057(3)
H12 H 0.5553(4) 0.3440(4) 0.9189(3)
H23 H 0.6101(3) 0.4618(2) 0.7533(2)
H24 H 0.4785(3) 0.3551(2) 0.6773(2)
H25 H 0.6597(2) 0.3803(2) 0.5815(2)
H26 H 0.7359(2) 0.3436(2) 0.6490(2)
H27 H 0.4933(2) 0.2438(2) 0.4378(2)
H28 H 0.4022(2) 0.2036(2) 0.5108(2)
H29 H 0.4914(2) 0.0517(2) 0.3260(2)
H30 H 0.4177(2) 0.0091(2) 0.4052(2)
H31 H 0.0774(2) 0.0268(2) 0.1071(2)
H32 H 0.4334(2) 0.4227(2) 0.3894(2)
H33 H 0.5537(2) 0.4062(2) 0.2524(2)
H34 H 0.5946(3) 0.2867(3) 0.0672(2)
H35 H 0.5343(3) 0.1157(3) -0.0968(3)
H36 H 0.3420(3) -0.0421(3) -0.1296(2)
H37 H 0.2143(2) -0.0287(2) 0.0023(2)
H38 H 0.3261(2) -0.1624(2) 0.2565(2)
H39 H 0.2076(2) -0.3387(2) 0.1047(2)
H40 H 0.0257(3) -0.4565(2) -0.0560(2)
H41 H -0.1536(3) -0.4721(2) -0.1592(2)
H42 H -0.2118(3) -0.3049(2) -0.1123(2)
H43 H -0.0851(2) -0.1236(2) 0.0300(2)
H44 H 0.0033(2) 0.2038(2) 0.2063(2)
H45 H -0.2341(2) 0.1845(2) 0.4224(2)
H46 H -0.0093(2) -0.0235(2) 0.3150(2)
O4? O 0.2178(11) 0.3513(12) 0.6376(9)
C7? C 0.1366(15) 0.3421(17) 0.7137(12)
O5? O 0.2877(18) 0.2829(19) 0.7764(17)
C8? C 0.3770(22) 0.3385(44) 0.8721(29)
F4? F -0.1105(21) 0.3460(19) 0.2638(20)
F5? F -0.2917(14) 0.2661(9) 0.2990(16)
F6? F -0.1411(17) 0.3887(10) 0.4216(8)
H13? H 0.1195(11) 0.3980(12) 0.5877(9)
H14? H 0.1054(11) 0.2634(12) 0.5210(9)
H15? H 0.0939(15) 0.4018(17) 0.7358(12)
H16? H 0.0664(15) 0.2640(17) 0.6775(12)
H17? H 0.1250(18) 0.3340(19) 0.8309(17)
H18? H 0.2437(18) 0.4386(19) 0.8350(17)
H19? H 0.3527(22) 0.2893(44) 0.9069(29)
H20? H 0.3637(22) 0.4133(44) 0.9205(29)
H21? H 0.5627(2) 0.4530(2) 0.9056(2)
H22? H 0.5577(2) 0.3425(2) 0.9166(2)
loop_
_geom_bond_atom_site_label_1
_geom_bond_atom_site_label_2
_geom_bond_site_symmetry_1
_geom_bond_site_symmetry_2
O1 C1 1_555 1_555
C1 C2 1_555 1_555
C2 O2 1_555 1_555
O2 C3 1_555 1_555
C3 C4 1_555 1_555
C4 O3 1_555 1_555
O3 C5 1_555 1_555
C5 C6 1_555 1_555
C6 O6 1_555 1_555
O6 C9 1_555 1_555
C9 C10 1_555 1_555
C10 O7 1_555 1_555
O7 C11 1_555 1_555
C11 C12 1_555 1_555
C12 O8 1_555 1_555
O8 C13 1_555 1_555
C13 C14 1_555 1_555
C14 C15 1_555 1_555
C15 C16 1_555 1_555
C16 C17 1_555 1_555
C17 O1 1_555 1_555
C18 C17 1_555 1_555
C19 C18 1_555 1_555
C20 C19 1_555 1_555
C21 C20 1_555 1_555
C22 C21 1_555 1_555
C23 C22 1_555 1_555
C24 C23 1_555 1_555
C25 C16 1_555 1_555
C26 C13 1_555 1_555
C27 C26 1_555 1_555
C28 C27 1_555 1_555
C29 C28 1_555 1_555
C30 C29 1_555 1_555
C31 C30 1_555 1_555
C32 C31 1_555 1_555
C33 C14 1_555 1_555
C34 C15 1_555 1_555
C35 C34 1_555 1_555
C36 C35 1_555 1_555
C37 C36 1_555 1_555
C38 C37 1_555 1_555
C39 C34 1_555 1_555
C40 C36 1_555 1_555
F1 C40 1_555 1_555
F2 C40 1_555 1_555
F3 C40 1_555 1_555
C41 C38 1_555 1_555
F7 C41 1_555 1_555
F8 C41 1_555 1_555
F9 C41 1_555 1_555
H1 C1 1_555 1_555
H2 C1 1_555 1_555
H3 C2 1_555 1_555
H4 C2 1_555 1_555
H5 C3 1_555 1_555
H6 C3 1_555 1_555
H7 C4 1_555 1_555
H8 C4 1_555 1_555
H9 C5 1_555 1_555
H10 C5 1_555 1_555
H11 C6 1_555 1_555
H12 C6 1_555 1_555
H23 C9 1_555 1_555
H24 C9 1_555 1_555
H25 C10 1_555 1_555
H26 C10 1_555 1_555
H27 C11 1_555 1_555
H28 C11 1_555 1_555
H29 C12 1_555 1_555
H30 C12 1_555 1_555
H31 C15 1_555 1_555
H32 C18 1_555 1_555
H33 C19 1_555 1_555
H34 C21 1_555 1_555
H35 C22 1_555 1_555
H36 C23 1_555 1_555
H37 C24 1_555 1_555
H38 C26 1_555 1_555
H39 C27 1_555 1_555
H40 C29 1_555 1_555
H41 C30 1_555 1_555
H42 C31 1_555 1_555
H43 C32 1_555 1_555
H44 C35 1_555 1_555
H45 C37 1_555 1_555
H46 C39 1_555 1_555
C20 C25 1_555 1_555
C24 C25 1_555 1_555
C28 C33 1_555 1_555
C32 C33 1_555 1_555
C38 C39 1_555 1_555

#END
