
#######################################################################
#
#                 Cambridge Crystallographic Data Centre
#                                CCDC 
#
#######################################################################
#
# If this CIF has been generated from an entry in the Cambridge 
# Structural Database, then it will include bibliographic, chemical, 
# crystal, experimental, refinement or atomic coordinate data resulting 
# from the CCDC's data processing and validation procedures.
#
#######################################################################

data_ZEHJIH
_chemical_formula_moiety         'C42 H28 N10,0.5(C4 H8 O2)'
_chemical_name_systematic        
"1,1'-((Pyridin-2-yl)(3-(pyridin-2-yl)imidazo[1,5-a]pyridin-1-yl)methylene)bis(3-(pyridin-2-yl)imidazo[1,5-a]pyridine) ethyl acetate solvate"
_symmetry_cell_setting           monoclinic
_symmetry_space_group_name_H-M   'P 21/n'
_symmetry_Int_Tables_number      14
_space_group_name_Hall           '-P 2yn'
loop_
_symmetry_equiv_pos_site_id
_symmetry_equiv_pos_as_xyz
1 x,y,z
2 1/2-x,1/2+y,1/2-z
3 -x,-y,-z
4 1/2+x,1/2-y,1/2+z
_cell_length_a                   8.2498(8)
_cell_length_b                   11.6208(11)
_cell_length_c                   39.240(4)
_cell_angle_alpha                90
_cell_angle_beta                 94.568(7)
_cell_angle_gamma                90
_cell_volume                     3749.96
_exptl_crystal_colour            yellow
_exptl_crystal_description       block
_cell_formula_units_Z            4
loop_
_atom_site_label
_atom_site_type_symbol
_atom_site_fract_x
_atom_site_fract_y
_atom_site_fract_z
C1 C 0.7317(8) 0.5925(6) 0.21934(18)
N1 N 0.8314(7) 0.5018(5) 0.22570(17)
N2 N 0.5603(6) 0.6977(4) 0.17664(13)
C2 C 0.7043(10) 0.6713(7) 0.24414(19)
H1 H 0.6330 0.7320 0.2392
N3 N 0.6600(6) 0.5344(4) 0.15785(14)
C3 C 0.7811(10) 0.6614(9) 0.2762(2)
H2 H 0.7634 0.7154 0.2930
N4 N 0.7711(7) 0.9356(5) 0.00697(14)
C4 C 0.8840(9) 0.5710(8) 0.2832(2)
H3 H 0.9384 0.5618 0.3047
N5 N 0.4981(6) 0.8145(4) 0.06600(13)
C5 C 0.9042(10) 0.4947(8) 0.2575(2)
H4 H 0.9738 0.4329 0.2623
N6 N 0.7056(6) 0.9324(4) 0.07832(13)
N7 N 0.1386(7) 1.1952(5) 0.19109(15)
C6 C 0.7351(9) 0.4292(6) 0.1540(2)
H5 H 0.7953 0.3948 0.1723
N8 N 0.3340(6) 0.9779(4) 0.14190(12)
C7 C 0.7193(10) 0.3774(7) 0.1231(2)
H6 H 0.7705 0.3071 0.1204
N9 N 0.2059(6) 0.9501(4) 0.18909(12)
C8 C 0.6274(10) 0.4266(7) 0.0949(2)
H7 H 0.6189 0.3893 0.0739
N10 N 0.1949(7) 0.6256(5) 0.11731(16)
C9 C 0.5521(8) 0.5284(6) 0.09878(19)
H8 H 0.4914 0.5614 0.0803
C10 C 0.5649(7) 0.5848(6) 0.13070(17)
C11 C 0.5044(7) 0.6845(5) 0.14379(16)
C12 C 0.4006(7) 0.7761(5) 0.12439(15)
C13 C 0.6375(8) 0.8821(5) 0.01660(17)
C14 C 0.5211(9) 0.8388(6) -0.00706(18)
H9 H 0.4306 0.8009 0.0001
C15 C 0.5397(11) 0.8522(7) -0.04157(19)
H10 H 0.4620 0.8236 -0.0579
C16 C 0.6765(13) 0.9090(8) -0.0514(2)
H11 H 0.6925 0.9202 -0.0743
C17 C 0.7854(11) 0.9475(8) -0.0265(2)
H12 H 0.8773 0.9850 -0.0331
C18 C 0.6162(8) 0.8743(6) 0.05276(16)
C19 C 0.8329(8) 1.0115(6) 0.0781(2)
H13 H 0.8718 1.0341 0.0576
C20 C 0.8988(8) 1.0547(7) 0.1078(2)
H14 H 0.9826 1.1081 0.1075
C21 C 0.8440(8) 1.0209(7) 0.1392(2)
H15 H 0.8945 1.0493 0.1595
C22 C 0.7174(8) 0.9468(6) 0.13993(17)
H16 H 0.6806 0.9245 0.1607
C23 C 0.6420(7) 0.9038(5) 0.10917(15)
C24 C 0.5102(7) 0.8321(5) 0.10005(15)
C25 C 0.6523(8) 0.6068(6) 0.18503(17)
C26 C 0.2351(7) 1.1537(5) 0.16802(16)
C27 C 0.3125(9) 1.2254(6) 0.14644(19)
H17 H 0.3804 1.1951 0.1309
C28 C 0.2879(10) 1.3416(7) 0.1483(2)
H18 H 0.3368 1.3912 0.1336
C29 C 0.1902(10) 1.3842(7) 0.1720(2)
H19 H 0.1726 1.4629 0.1740
C30 C 0.1201(10) 1.3085(7) 0.1925(2)
H20 H 0.0547 1.3378 0.2087
C31 C 0.2567(7) 1.0302(5) 0.16625(15)
C32 C 0.1236(8) 0.9612(7) 0.21817(18)
H21 H 0.0933 1.0335 0.2255
C33 C 0.0876(10) 0.8670(7) 0.2357(2)
H22 H 0.0321 0.8742 0.2553
C34 C 0.1332(10) 0.7568(7) 0.2248(2)
H23 H 0.1064 0.6920 0.2370
C35 C 0.2153(8) 0.7452(6) 0.19660(18)
H24 H 0.2453 0.6723 0.1896
C36 C 0.2560(7) 0.8425(5) 0.17780(16)
C37 C 0.3369(7) 0.8640(5) 0.14886(15)
C38 C 0.2469(7) 0.7246(6) 0.10569(16)
C39 C 0.1599(8) 0.7845(6) 0.08054(18)
H25 H 0.1998 0.8539 0.0729
C40 C 0.0140(8) 0.7432(7) 0.06638(19)
H26 H -0.0454 0.7834 0.0491
C41 C -0.0413(10) 0.6419(8) 0.0783(2)
H27 H -0.1397 0.6110 0.0694
C42 C 0.0506(11) 0.5869(8) 0.1035(2)
H28 H 0.0112 0.5183 0.1118
O1? O 0.892(4) 0.332(3) 1.0270(7)
C43? C 0.822(5) 0.413(4) 1.0092(12)
C44? C 0.984(5) 0.468(2) 1.0035(14)
H29? H 1.0163 0.4465 0.9815
H30? H 1.0639 0.4433 1.0210
H31? H 0.9728 0.5506 1.0045
O2? O 0.707(5) 0.467(2) 0.9951(10)
C45? C 0.7036(14) 0.5582(12) 0.9831(4)
H32? H 0.6602 0.6105 0.9994
H33? H 0.6268 0.5565 0.9631
C46? C 0.8397(13) 0.6020(11) 0.9740(3)
H34? H 0.9236 0.5447 0.9763
H35? H 0.8703 0.6664 0.9884
H36? H 0.8251 0.6271 0.9506
loop_
_geom_bond_atom_site_label_1
_geom_bond_atom_site_label_2
_geom_bond_site_symmetry_1
_geom_bond_site_symmetry_2
C1 N1 1_555 1_555
N1 C5 1_555 1_555
N2 C11 1_555 1_555
C2 C1 1_555 1_555
H1 C2 1_555 1_555
N3 C6 1_555 1_555
C3 C2 1_555 1_555
H2 C3 1_555 1_555
N4 C13 1_555 1_555
C4 C3 1_555 1_555
H3 C4 1_555 1_555
N5 C18 1_555 1_555
C5 C4 1_555 1_555
H4 C5 1_555 1_555
N6 C18 1_555 1_555
N7 C26 1_555 1_555
C6 H5 1_555 1_555
N8 C31 1_555 1_555
C7 C6 1_555 1_555
H6 C7 1_555 1_555
N9 C31 1_555 1_555
C8 C7 1_555 1_555
H7 C8 1_555 1_555
N10 C38 1_555 1_555
C9 C8 1_555 1_555
H8 C9 1_555 1_555
C10 N3 1_555 1_555
C11 C10 1_555 1_555
C12 C11 1_555 1_555
C13 C14 1_555 1_555
C14 H9 1_555 1_555
C15 C14 1_555 1_555
H10 C15 1_555 1_555
C16 C15 1_555 1_555
H11 C16 1_555 1_555
C17 N4 1_555 1_555
H12 C17 1_555 1_555
C18 C13 1_555 1_555
C19 N6 1_555 1_555
H13 C19 1_555 1_555
C20 C19 1_555 1_555
H14 C20 1_555 1_555
C21 C20 1_555 1_555
H15 C21 1_555 1_555
C22 C21 1_555 1_555
H16 C22 1_555 1_555
C23 N6 1_555 1_555
C24 N5 1_555 1_555
C25 C1 1_555 1_555
C26 C27 1_555 1_555
C27 H17 1_555 1_555
C28 C27 1_555 1_555
H18 C28 1_555 1_555
C29 C28 1_555 1_555
H19 C29 1_555 1_555
C30 N7 1_555 1_555
H20 C30 1_555 1_555
C31 C26 1_555 1_555
C32 N9 1_555 1_555
H21 C32 1_555 1_555
C33 C32 1_555 1_555
H22 C33 1_555 1_555
C34 C33 1_555 1_555
H23 C34 1_555 1_555
C35 C34 1_555 1_555
H24 C35 1_555 1_555
C36 N9 1_555 1_555
C37 N8 1_555 1_555
C38 C12 1_555 1_555
C39 C38 1_555 1_555
H25 C39 1_555 1_555
C40 C39 1_555 1_555
H26 C40 1_555 1_555
C41 C40 1_555 1_555
H27 C41 1_555 1_555
C42 N10 1_555 1_555
H28 C42 1_555 1_555
N2 C25 1_555 1_555
N3 C25 1_555 1_555
C9 C10 1_555 1_555
C12 C24 1_555 1_555
C12 C37 1_555 1_555
C16 C17 1_555 1_555
C22 C23 1_555 1_555
C23 C24 1_555 1_555
C29 C30 1_555 1_555
C35 C36 1_555 1_555
C36 C37 1_555 1_555
C41 C42 1_555 1_555

#END
