
#######################################################################
#
#                 Cambridge Crystallographic Data Centre
#                                CCDC 
#
#######################################################################
#
# If this CIF has been generated from an entry in the Cambridge 
# Structural Database, then it will include bibliographic, chemical, 
# crystal, experimental, refinement or atomic coordinate data resulting 
# from the CCDC's data processing and validation procedures.
#
#######################################################################

data_ZEHMEE
_chemical_formula_moiety         'C42 H62 Li2 N10 O2 P2'
_chemical_name_systematic        
bis(\m~2~-Hexamethylphosphoramide)-bis(N,N'-diphenyl-1,3-propenedi-imino-N,N')-di-lithium
_symmetry_cell_setting           monoclinic
_symmetry_space_group_name_H-M   'P 21/c'
_symmetry_Int_Tables_number      14
_space_group_name_Hall           '-P 2ybc'
loop_
_symmetry_equiv_pos_site_id
_symmetry_equiv_pos_as_xyz
1 x,y,z
2 -x,1/2+y,1/2-z
3 -x,-y,-z
4 x,1/2-y,1/2+z
_cell_length_a                   10.470(2)
_cell_length_b                   18.836(4)
_cell_length_c                   11.710(2)
_cell_angle_alpha                90
_cell_angle_beta                 103.33(3)
_cell_angle_gamma                90
_cell_volume                     2247.15
_chemical_melting_point          87.0-87.5deg.C
_cell_formula_units_Z            2
loop_
_atom_site_label
_atom_site_type_symbol
_atom_site_fract_x
_atom_site_fract_y
_atom_site_fract_z
P1 P 0.3835(1) 0.8972(1) 0.1394(1)
O1 O 0.4419(2) 0.9455(1) 0.0629(1)
Li1 Li 0.5212(4) 0.9470(2) -0.0742(4)
N1 N 0.4283(2) 0.9054(1) -0.2337(2)
N2 N 0.6821(2) 0.8838(1) -0.0592(2)
N3 N 0.2588(2) 0.9353(1) 0.1767(2)
N4 N 0.4814(2) 0.8749(1) 0.2651(2)
N5 N 0.3310(2) 0.8239(1) 0.0674(2)
C1 C 0.5044(3) 0.8835(1) -0.3030(2)
C2 C 0.6380(3) 0.8680(1) -0.2701(2)
C3 C 0.7140(3) 0.8627(1) -0.1566(2)
C4 C 0.2233(3) 0.9265(2) 0.2898(2)
C5 C 0.1531(2) 0.9656(1) 0.0855(2)
C6 C 0.5435(3) 0.9301(2) 0.3469(2)
C7 C 0.5480(3) 0.8058(1) 0.2835(3)
C8 C 0.2305(3) 0.7797(2) 0.1003(3)
C9 C 0.4072(3) 0.7866(1) -0.0044(2)
C10 C 0.2920(3) 0.9106(1) -0.2837(2)
C11 C 0.2365(3) 0.9254(1) -0.4015(2)
C12 C 0.1018(3) 0.9272(2) -0.4439(2)
C13 C 0.0184(3) 0.9154(2) -0.3706(3)
C14 C 0.0714(3) 0.9030(1) -0.2524(3)
C15 C 0.2059(3) 0.9003(1) -0.2096(2)
C16 C 0.7631(2) 0.8629(1) 0.0490(2)
C17 C 0.8258(3) 0.7962(1) 0.0680(3)
C18 C 0.9014(3) 0.7787(2) 0.1777(3)
C19 C 0.9163(3) 0.8253(2) 0.2705(3)
C20 C 0.8547(3) 0.8907(2) 0.2537(3)
C21 C 0.7780(2) 0.9089(1) 0.1450(2)
H1 H 0.4634(3) 0.8779(1) -0.3837(2)
H2 H 0.6815(3) 0.8602(1) -0.3319(2)
H3 H 0.7982(3) 0.8416(1) -0.1479(2)
H4 H 0.2249(16) 0.9728(2) 0.3282(7)
H5 H 0.2862(10) 0.8946(7) 0.3398(6)
H6 H 0.1349(7) 0.9062(8) 0.2770(3)
H7 H 0.1841(5) 0.9722(8) 0.0134(5)
H8 H 0.1269(10) 1.0115(4) 0.1120(6)
H9 H 0.0777(6) 0.9333(4) 0.0701(10)
H10 H 0.4928(9) 0.9742(3) 0.3301(9)
H11 H 0.6331(6) 0.9383(6) 0.3378(10)
H12 H 0.5463(14) 0.9150(4) 0.4275(2)
H13 H 0.6282(9) 0.8077(3) 0.2540(13)
H14 H 0.4896(7) 0.7690(2) 0.2413(12)
H15 H 0.5705(14) 0.7947(4) 0.3675(3)
H16 H 0.1791(12) 0.8085(3) 0.1432(14)
H17 H 0.2726(3) 0.7406(6) 0.1504(13)
H18 H 0.1724(11) 0.7603(8) 0.0294(3)
H19 H 0.4716(11) 0.8192(3) -0.0244(12)
H20 H 0.3480(3) 0.7694(7) -0.0765(7)
H21 H 0.4529(12) 0.7462(5) 0.0398(6)
H22 H 0.2922(3) 0.9345(1) -0.4534(2)
H23 H 0.0663(3) 0.9367(2) -0.5247(2)
H24 H -0.0740(3) 0.9157(2) -0.4005(3)
H25 H 0.0149(3) 0.8962(1) -0.2005(3)
H26 H 0.2405(3) 0.8915(1) -0.1285(2)
H27 H 0.8160(3) 0.7632(1) 0.0052(3)
H28 H 0.9437(3) 0.7338(2) 0.1892(3)
H29 H 0.9685(3) 0.8127(2) 0.3453(3)
H30 H 0.8650(3) 0.9232(2) 0.3172(3)
H31 H 0.7346(2) 0.9535(1) 0.1353(2)
Li1B Li 0.4788(4) 1.0530(2) 0.0742(4)
O1B O 0.5581(2) 1.0545(1) -0.0629(1)
N1B N 0.5717(2) 1.0946(1) 0.2337(2)
N2B N 0.3179(2) 1.1162(1) 0.0592(2)
P1B P 0.6165(1) 1.1028(1) -0.1394(1)
C1B C 0.4956(3) 1.1165(1) 0.3030(2)
C10B C 0.7080(3) 1.0894(1) 0.2837(2)
C3B C 0.2860(3) 1.1373(1) 0.1566(2)
C16B C 0.2369(2) 1.1371(1) -0.0490(2)
N3B N 0.7412(2) 1.0647(1) -0.1767(2)
N4B N 0.5186(2) 1.1251(1) -0.2651(2)
N5B N 0.6690(2) 1.1761(1) -0.0674(2)
C2B C 0.3620(3) 1.1320(1) 0.2701(2)
H1B H 0.5366(3) 1.1221(1) 0.3837(2)
C11B C 0.7635(3) 1.0746(1) 0.4015(2)
C15B C 0.7941(3) 1.0997(1) 0.2096(2)
H3B H 0.2018(3) 1.1584(1) 0.1479(2)
C17B C 0.1742(3) 1.2038(1) -0.0680(3)
C21B C 0.2220(2) 1.0911(1) -0.1450(2)
C4B C 0.7767(3) 1.0735(2) -0.2898(2)
C5B C 0.8469(2) 1.0344(1) -0.0855(2)
C6B C 0.4565(3) 1.0699(2) -0.3469(2)
C7B C 0.4520(3) 1.1942(1) -0.2835(3)
C8B C 0.7695(3) 1.2203(2) -0.1003(3)
C9B C 0.5928(3) 1.2134(1) 0.0044(2)
H2B H 0.3185(3) 1.1398(1) 0.3319(2)
C12B C 0.8982(3) 1.0728(2) 0.4439(2)
H22B H 0.7078(3) 1.0655(1) 0.4534(2)
C14B C 0.9286(3) 1.0970(1) 0.2524(3)
H26B H 0.7595(3) 1.1085(1) 0.1285(2)
C18B C 0.0986(3) 1.2213(2) -0.1777(3)
H27B H 0.1840(3) 1.2368(1) -0.0052(3)
C20B C 0.1453(3) 1.1093(2) -0.2537(3)
H31B H 0.2654(2) 1.0465(1) -0.1353(2)
H4B H 0.7751(16) 1.0272(2) -0.3282(7)
H5B H 0.7138(10) 1.1054(7) -0.3398(6)
H6B H 0.8651(7) 1.0938(8) -0.2770(3)
H7B H 0.8159(5) 1.0278(8) -0.0134(5)
H8B H 0.8731(10) 0.9885(4) -0.1120(6)
H9B H 0.9223(6) 1.0667(4) -0.0701(10)
H10B H 0.5072(9) 1.0258(3) -0.3301(9)
H11B H 0.3669(6) 1.0617(6) -0.3378(10)
H12B H 0.4537(14) 1.0850(4) -0.4275(2)
H13B H 0.3718(9) 1.1923(3) -0.2540(13)
H14B H 0.5104(7) 1.2310(2) -0.2413(12)
H15B H 0.4295(14) 1.2053(4) -0.3675(3)
H16B H 0.8209(12) 1.1915(3) -0.1432(14)
H17B H 0.7274(3) 1.2594(6) -0.1504(13)
H18B H 0.8276(11) 1.2397(8) -0.0294(3)
H19B H 0.5284(11) 1.1808(3) 0.0244(12)
H20B H 0.6520(3) 1.2306(7) 0.0765(7)
H21B H 0.5471(12) 1.2538(5) -0.0398(6)
C13B C 0.9816(3) 1.0846(2) 0.3706(3)
H23B H 0.9337(3) 1.0633(2) 0.5247(2)
H25B H 0.9851(3) 1.1038(1) 0.2005(3)
C19B C 0.0837(3) 1.1747(2) -0.2705(3)
H28B H 0.0563(3) 1.2662(2) -0.1892(3)
H30B H 0.1350(3) 1.0768(2) -0.3172(3)
H24B H 1.0740(3) 1.0843(2) 0.4005(3)
H29B H 0.0315(3) 1.1873(2) -0.3453(3)
loop_
_geom_bond_atom_site_label_1
_geom_bond_atom_site_label_2
_geom_bond_site_symmetry_1
_geom_bond_site_symmetry_2
P1 O1 1_555 1_555
O1 Li1 1_555 1_555
Li1 N1 1_555 1_555
N1 C1 1_555 1_555
N2 Li1 1_555 1_555
N3 P1 1_555 1_555
N4 P1 1_555 1_555
N5 P1 1_555 1_555
C1 C2 1_555 1_555
C2 C3 1_555 1_555
C3 N2 1_555 1_555
C4 N3 1_555 1_555
C5 N3 1_555 1_555
C6 N4 1_555 1_555
C7 N4 1_555 1_555
C8 N5 1_555 1_555
C9 N5 1_555 1_555
C10 N1 1_555 1_555
C11 C10 1_555 1_555
C12 C11 1_555 1_555
C13 C12 1_555 1_555
C14 C13 1_555 1_555
C15 C10 1_555 1_555
C16 N2 1_555 1_555
C17 C16 1_555 1_555
C18 C17 1_555 1_555
C19 C18 1_555 1_555
C20 C19 1_555 1_555
C21 C16 1_555 1_555
H1 C1 1_555 1_555
H2 C2 1_555 1_555
H3 C3 1_555 1_555
H4 C4 1_555 1_555
H5 C4 1_555 1_555
H6 C4 1_555 1_555
H7 C5 1_555 1_555
H8 C5 1_555 1_555
H9 C5 1_555 1_555
H10 C6 1_555 1_555
H11 C6 1_555 1_555
H12 C6 1_555 1_555
H13 C7 1_555 1_555
H14 C7 1_555 1_555
H15 C7 1_555 1_555
H16 C8 1_555 1_555
H17 C8 1_555 1_555
H18 C8 1_555 1_555
H19 C9 1_555 1_555
H20 C9 1_555 1_555
H21 C9 1_555 1_555
H22 C11 1_555 1_555
H23 C12 1_555 1_555
H24 C13 1_555 1_555
H25 C14 1_555 1_555
H26 C15 1_555 1_555
H27 C17 1_555 1_555
H28 C18 1_555 1_555
H29 C19 1_555 1_555
H30 C20 1_555 1_555
H31 C21 1_555 1_555
Li1B O1 1_555 1_555
O1B Li1 1_555 1_555
N1B Li1B 1_555 1_555
N2B Li1B 1_555 1_555
P1B O1B 1_555 1_555
C1B N1B 1_555 1_555
C10B N1B 1_555 1_555
C3B N2B 1_555 1_555
C16B N2B 1_555 1_555
N3B P1B 1_555 1_555
N4B P1B 1_555 1_555
N5B P1B 1_555 1_555
C2B C1B 1_555 1_555
H1B C1B 1_555 1_555
C11B C10B 1_555 1_555
C15B C10B 1_555 1_555
H3B C3B 1_555 1_555
C17B C16B 1_555 1_555
C21B C16B 1_555 1_555
C4B N3B 1_555 1_555
C5B N3B 1_555 1_555
C6B N4B 1_555 1_555
C7B N4B 1_555 1_555
C8B N5B 1_555 1_555
C9B N5B 1_555 1_555
H2B C2B 1_555 1_555
C12B C11B 1_555 1_555
H22B C11B 1_555 1_555
C14B C15B 1_555 1_555
H26B C15B 1_555 1_555
C18B C17B 1_555 1_555
H27B C17B 1_555 1_555
C20B C21B 1_555 1_555
H31B C21B 1_555 1_555
H4B C4B 1_555 1_555
H5B C4B 1_555 1_555
H6B C4B 1_555 1_555
H7B C5B 1_555 1_555
H8B C5B 1_555 1_555
H9B C5B 1_555 1_555
H10B C6B 1_555 1_555
H11B C6B 1_555 1_555
H12B C6B 1_555 1_555
H13B C7B 1_555 1_555
H14B C7B 1_555 1_555
H15B C7B 1_555 1_555
H16B C8B 1_555 1_555
H17B C8B 1_555 1_555
H18B C8B 1_555 1_555
H19B C9B 1_555 1_555
H20B C9B 1_555 1_555
H21B C9B 1_555 1_555
C13B C12B 1_555 1_555
H23B C12B 1_555 1_555
H25B C14B 1_555 1_555
C19B C18B 1_555 1_555
H28B C18B 1_555 1_555
H30B C20B 1_555 1_555
H24B C13B 1_555 1_555
H29B C19B 1_555 1_555
C14 C15 1_555 1_555
C20 C21 1_555 1_555
Li1B O1B 1_555 1_555
C3B C2B 1_555 1_555
C14B C13B 1_555 1_555
C20B C19B 1_555 1_555

#END
