
#######################################################################
#
#                 Cambridge Crystallographic Data Centre
#                                CCDC 
#
#######################################################################
#
# If this CIF has been generated from an entry in the Cambridge 
# Structural Database, then it will include bibliographic, chemical, 
# crystal, experimental, refinement or atomic coordinate data resulting 
# from the CCDC's data processing and validation procedures.
#
#######################################################################

data_ZEJCEW
_chemical_formula_moiety         'C26 H27 O6 P1'
_chemical_name_systematic        
'Methyl 4,6-O-benzylidene-2-deoxy-2-C-diphenylphosphinyl-\a-D-altropyranoside'
_symmetry_cell_setting           monoclinic
_symmetry_space_group_name_H-M   'P 21'
_symmetry_Int_Tables_number      4
_space_group_name_Hall           'P 2yb'
loop_
_symmetry_equiv_pos_site_id
_symmetry_equiv_pos_as_xyz
1 x,y,z
2 -x,1/2+y,-z
_cell_length_a                   12.519(4)
_cell_length_b                   5.815(2)
_cell_length_c                   16.195(5)
_cell_angle_alpha                90
_cell_angle_beta                 93.22(2)
_cell_angle_gamma                90
_cell_volume                     1177.1
_chemical_melting_point          '253-256 deg.C (dec.)'
_cell_formula_units_Z            2
loop_
_atom_site_label
_atom_site_type_symbol
_atom_site_fract_x
_atom_site_fract_y
_atom_site_fract_z
P1 P 0.7774(1) 0.1774(3) 0.6381(1)
O1 O 0.7558(3) -0.2747(8) 0.8203(2)
O2 O 0.8246(3) 0.4064(8) 0.6589(2)
O3 O 0.9672(3) -0.2996(8) 0.7502(2)
O4 O 1.0873(3) 0.0860(8) 0.8018(2)
O5 O 0.8072(3) 0.1044(7) 0.8524(2)
O6 O 1.0779(3) 0.2193(10) 0.9365(2)
C1 C 0.7573(5) -0.0450(11) 0.7933(3)
C2 C 0.8135(4) -0.0538(10) 0.7109(3)
C3 C 0.9369(4) -0.0762(10) 0.7231(4)
C4 C 0.9739(4) 0.0969(10) 0.7881(3)
C5 C 0.9189(4) 0.0641(12) 0.8673(3)
C6 C 0.9628(5) 0.2408(12) 0.9300(4)
C7 C 1.1205(5) 0.2580(12) 0.8590(4)
C8 C 0.6328(4) 0.1889(15) 0.6314(3)
C9 C 0.5813(5) 0.3680(14) 0.6671(4)
C10 C 0.4716(7) 0.3783(20) 0.6618(6)
C11 C 0.4136(6) 0.2062(24) 0.6230(6)
C12 C 0.4638(6) 0.0263(20) 0.5884(6)
C13 C 0.5738(5) 0.0165(14) 0.5927(5)
C14 C 0.8154(4) 0.0768(11) 0.5377(3)
C15 C 0.8030(5) 0.2346(12) 0.4744(4)
C16 C 0.8334(5) 0.1739(18) 0.3958(4)
C17 C 0.8770(6) -0.0347(15) 0.3806(4)
C18 C 0.8890(6) -0.1876(13) 0.4435(4)
C19 C 0.8589(5) -0.1388(12) 0.5219(4)
C20 C 1.2418(6) 0.2506(15) 0.8699(4)
C21 C 1.2989(7) 0.0664(22) 0.8473(8)
C22 C 1.4093(8) 0.0638(25) 0.8583(8)
C23 C 1.4618(9) 0.2478(27) 0.8917(7)
C24 C 1.4060(9) 0.4305(29) 0.9148(6)
C25 C 1.2944(8) 0.4346(22) 0.9022(6)
C26 C 0.7004(6) -0.3064(18) 0.8929(4)
H1 H 0.9283(37) -0.3950(12) 0.7264(33)
H2 H 0.6833(5) 0.0062(11) 0.7819(3)
H3 H 0.7889(4) -0.1963(10) 0.6837(3)
H4 H 0.9698(4) -0.0417(10) 0.6710(4)
H5 H 0.9556(4) 0.2505(10) 0.7669(3)
H6 H 0.9312(4) -0.0920(12) 0.8886(3)
H7 H 0.9426(5) 0.3946(12) 0.9120(4)
H8 H 0.9337(5) 0.2132(12) 0.9834(4)
H9 H 1.0976(5) 0.4091(12) 0.8379(4)
H10 H 0.6207(5) 0.4827(14) 0.6949(4)
H11 H 0.4368(7) 0.5023(20) 0.6846(6)
H12 H 0.3392(6) 0.2126(24) 0.6203(6)
H13 H 0.4240(6) -0.0900(20) 0.5620(6)
H14 H 0.6084(5) -0.1070(14) 0.5692(5)
H15 H 0.7747(5) 0.3794(12) 0.4840(4)
H16 H 0.8236(5) 0.2788(18) 0.3528(4)
H17 H 0.8982(6) -0.0717(15) 0.3281(4)
H18 H 0.9187(6) -0.3307(13) 0.4332(4)
H19 H 0.8674(5) -0.2478(12) 0.5638(4)
H20 H 1.2635(7) -0.0606(22) 0.8241(8)
H21 H 1.4475(8) -0.0647(25) 0.8246(8)
H22 H 1.5361(8) 0.2472(27) 0.8985(7)
H23 H 1.4415(9) 0.5556(29) 0.9394(6)
H24 H 1.2565(8) 0.5651(22) 0.9161(6)
H25 H 0.7077(44) -0.4634(34) 0.9107(23)
H26 H 0.6261(12) -0.271(11) 0.8818(12)
H27 H 0.7299(36) -0.2064(85) 0.9355(13)
loop_
_geom_bond_atom_site_label_1
_geom_bond_atom_site_label_2
_geom_bond_site_symmetry_1
_geom_bond_site_symmetry_2
P1 O2 1_555 1_555
O1 C1 1_555 1_555
O3 C3 1_555 1_555
O4 C4 1_555 1_555
O5 C1 1_555 1_555
O6 C6 1_555 1_555
C1 C2 1_555 1_555
C2 P1 1_555 1_555
C3 C2 1_555 1_555
C4 C3 1_555 1_555
C5 O5 1_555 1_555
C6 C5 1_555 1_555
C7 O4 1_555 1_555
C8 P1 1_555 1_555
C9 C8 1_555 1_555
C10 C9 1_555 1_555
C11 C10 1_555 1_555
C12 C11 1_555 1_555
C13 C8 1_555 1_555
C14 P1 1_555 1_555
C15 C14 1_555 1_555
C16 C15 1_555 1_555
C17 C16 1_555 1_555
C18 C17 1_555 1_555
C19 C14 1_555 1_555
C20 C7 1_555 1_555
C21 C20 1_555 1_555
C22 C21 1_555 1_555
C23 C22 1_555 1_555
C24 C23 1_555 1_555
C25 C20 1_555 1_555
C26 O1 1_555 1_555
H1 O3 1_555 1_555
H2 C1 1_555 1_555
H3 C2 1_555 1_555
H4 C3 1_555 1_555
H5 C4 1_555 1_555
H6 C5 1_555 1_555
H7 C6 1_555 1_555
H8 C6 1_555 1_555
H9 C7 1_555 1_555
H10 C9 1_555 1_555
H11 C10 1_555 1_555
H12 C11 1_555 1_555
H13 C12 1_555 1_555
H14 C13 1_555 1_555
H15 C15 1_555 1_555
H16 C16 1_555 1_555
H17 C17 1_555 1_555
H18 C18 1_555 1_555
H19 C19 1_555 1_555
H20 C21 1_555 1_555
H21 C22 1_555 1_555
H22 C23 1_555 1_555
H23 C24 1_555 1_555
H24 C25 1_555 1_555
H25 C26 1_555 1_555
H26 C26 1_555 1_555
H27 C26 1_555 1_555
O6 C7 1_555 1_555
C4 C5 1_555 1_555
C12 C13 1_555 1_555
C18 C19 1_555 1_555
C24 C25 1_555 1_555

#END
