
#######################################################################
#
#                 Cambridge Crystallographic Data Centre
#                                CCDC 
#
#######################################################################
#
# If this CIF has been generated from an entry in the Cambridge 
# Structural Database, then it will include bibliographic, chemical, 
# crystal, experimental, refinement or atomic coordinate data resulting 
# from the CCDC's data processing and validation procedures.
#
#######################################################################

data_ZEJCEW01
_chemical_formula_moiety         'C26 H27 O6 P1'
_chemical_name_systematic        
'Methyl 4,6-O-benzylidene-2-deoxy-2-C-diphenylphosphinyl-\a-D-altropyranoside'
_symmetry_cell_setting           monoclinic
_symmetry_space_group_name_H-M   'P 21'
_symmetry_Int_Tables_number      4
_space_group_name_Hall           'P 2yb'
loop_
_symmetry_equiv_pos_site_id
_symmetry_equiv_pos_as_xyz
1 x,y,z
2 -x,1/2+y,-z
_cell_length_a                   16.193(1)
_cell_length_b                   5.804(1)
_cell_length_c                   12.512(2)
_cell_angle_alpha                90
_cell_angle_beta                 93.187(5)
_cell_angle_gamma                90
_cell_volume                     1174.11
_chemical_melting_point          211-213deg.C
_cell_formula_units_Z            2
loop_
_atom_site_label
_atom_site_type_symbol
_atom_site_fract_x
_atom_site_fract_y
_atom_site_fract_z
P1 P 0.1382(5) 0.154 0.2777(6)
O1 O 0.3200(1) 0.6064(5) 0.2560(2)
O2 O 0.2504(1) 0.6327(5) 0.4675(2)
O3 O 0.3016(1) 0.2455(5) 0.5872(2)
O4 O 0.3521(1) 0.2267(4) 0.3069(2)
O5 O 0.4363(1) 0.1100(6) 0.5773(2)
O6 O 0.1590(1) -0.0770(5) 0.3248(2)
C1 C 0.2930(2) 0.3761(7) 0.2573(3)
C2 C 0.2104(2) 0.3867(6) 0.3134(2)
C3 C 0.2234(2) 0.4084(6) 0.4371(2)
C4 C 0.2873(2) 0.2332(6) 0.4738(2)
C5 C 0.3676(2) 0.2685(7) 0.4199(3)
C6 C 0.4298(2) 0.0906(8) 0.4630(3)
C7 C 0.3584(2) 0.0725(7) 0.6213(3)
C8 C 0.3934(2) 0.639(1) 0.2007(3)
C9 C 0.3693(2) 0.0805(8) 0.7417(3)
C10 C 0.4035(3) -0.106(1) 0.7958(4)
C11 C 0.4150(3) -0.098(1) 0.9078(4)
C12 C 0.3909(3) 0.087(1) 0.9631(4)
C13 C 0.3568(6) 0.270(1) 0.9108(4)
C14 C 0.3470(5) 0.266(1) 0.7992(4)
C15 C 0.1315(2) 0.1439(8) 0.1338(2)
C16 C 0.1666(3) -0.0389(9) 0.0817(3)
C17 C 0.1631(3) -0.049(1) -0.0289(3)
C18 C 0.1223(3) 0.123(1) -0.0879(3)
C19 C 0.0882(3) 0.307(1) -0.0370(3)
C20 C 0.0921(3) 0.3170(9) 0.0740(3)
C21 C 0.0379(2) 0.2555(7) 0.3157(2)
C22 C -0.0264(2) 0.0964(7) 0.3021(3)
C23 C -0.1051(2) 0.154(1) 0.3320(3)
C24 C -0.1199(2) 0.3660(9) 0.3755(3)
C25 C -0.0570(2) 0.5207(8) 0.3902(3)
C26 C 0.0223(2) 0.4691(7) 0.3592(3)
loop_
_geom_bond_atom_site_label_1
_geom_bond_atom_site_label_2
_geom_bond_site_symmetry_1
_geom_bond_site_symmetry_2
P1 O6 1_555 1_555
O1 C1 1_555 1_555
O2 C3 1_555 1_555
O3 C4 1_555 1_555
O4 C1 1_555 1_555
O5 C6 1_555 1_555
C1 C2 1_555 1_555
C2 P1 1_555 1_555
C3 C2 1_555 1_555
C4 C3 1_555 1_555
C5 O4 1_555 1_555
C6 C5 1_555 1_555
C7 O3 1_555 1_555
C8 O1 1_555 1_555
C9 C7 1_555 1_555
C10 C9 1_555 1_555
C11 C10 1_555 1_555
C12 C11 1_555 1_555
C13 C12 1_555 1_555
C14 C9 1_555 1_555
C15 P1 1_555 1_555
C16 C15 1_555 1_555
C17 C16 1_555 1_555
C18 C17 1_555 1_555
C19 C18 1_555 1_555
C20 C15 1_555 1_555
C21 P1 1_555 1_555
C22 C21 1_555 1_555
C23 C22 1_555 1_555
C24 C23 1_555 1_555
C25 C24 1_555 1_555
C26 C21 1_555 1_555
O5 C7 1_555 1_555
C4 C5 1_555 1_555
C13 C14 1_555 1_555
C19 C20 1_555 1_555
C25 C26 1_555 1_555

#END
