
#######################################################################
#
#                 Cambridge Crystallographic Data Centre
#                                CCDC 
#
#######################################################################
#
# If this CIF has been generated from an entry in the Cambridge 
# Structural Database, then it will include bibliographic, chemical, 
# crystal, experimental, refinement or atomic coordinate data resulting 
# from the CCDC's data processing and validation procedures.
#
#######################################################################

data_ZEJKOR
_chemical_formula_moiety         'C24 H24 O6,2.5(H2 O1)'
_chemical_name_systematic        
'tetracyclo[16.3.1.1^4,8^.1^11,15^]tetracosa-1(22),4(24),5,7,11(23),12,14,18,20-nonaene-2,3,9,10,16,17-hexol hydrate'
_symmetry_cell_setting           monoclinic
_symmetry_space_group_name_H-M   'C 2/c'
_symmetry_Int_Tables_number      15
_space_group_name_Hall           '-C 2yn'
loop_
_symmetry_equiv_pos_site_id
_symmetry_equiv_pos_as_xyz
1 x,y,z
2 -x,y,1/2-z
3 1/2+x,1/2+y,z
4 1/2-x,1/2+y,1/2-z
5 -x,-y,-z
6 x,-y,1/2+z
7 1/2-x,1/2-y,-z
8 1/2+x,1/2-y,1/2+z
_cell_length_a                   29.7217(3)
_cell_length_b                   9.69220(10)
_cell_length_c                   20.5407(4)
_cell_angle_alpha                90
_cell_angle_beta                 132.61
_cell_angle_gamma                90
_cell_volume                     4354.88
_exptl_crystal_colour            colorless
_exptl_crystal_description       PLATE
_cell_formula_units_Z            8
loop_
_atom_site_label
_atom_site_type_symbol
_atom_site_fract_x
_atom_site_fract_y
_atom_site_fract_z
O1 O 0.49450(5) 0.19659(12) 0.46381(8)
H1 H 0.4961(6) 0.151(2) 0.4235(14)
O2 O 0.60667(6) 0.15301(13) 0.50765(8)
H2 H 0.5922(11) 0.057(3) 0.4956(12)
O3 O 0.80926(6) 0.25902(13) 0.65712(9)
H3 H 0.8347(11) 0.2745(13) 0.6464(14)
O4 O 0.86961(6) 0.50176(14) 0.68091(9)
H4 H 0.9035(10) 0.494(3) 0.7351(17)
O5 O 0.59588(6) 0.88172(14) 0.39762(8)
H5 H 0.6155(6) 0.920(3) 0.3829(8)
O6 O 0.56876(6) 0.88745(12) 0.49621(8)
H6 H 0.5498(10) 0.8657(10) 0.5111(15)
C1 C 0.54357(8) 0.29310(17) 0.51674(11)
H7 H 0.5429 0.3313 0.5613
C2 C 0.53482(7) 0.41387(17) 0.46163(11)
C3 C 0.57098(7) 0.53197(17) 0.50316(11)
H8 H 0.6022 0.5337 0.5659
C4 C 0.56284(7) 0.64668(16) 0.45581(11)
C5 C 0.51674(8) 0.64497(18) 0.36386(12)
H9 H 0.5102 0.7229 0.3303
C6 C 0.48043(9) 0.52852(19) 0.32178(12)
H10 H 0.4491 0.5273 0.2591
C7 C 0.48906(8) 0.41410(18) 0.36949(12)
H11 H 0.4637 0.3353 0.3393
C8 C 0.60335(7) 0.77129(16) 0.50733(11)
H12 H 0.6336 0.7463 0.5715
C9 C 0.63896(8) 0.82265(17) 0.48275(11)
H13 H 0.6676 0.8968 0.5254
C10 C 0.67636(7) 0.70649(16) 0.49012(11)
C11 C 0.66122(8) 0.64610(18) 0.41635(11)
H14 H 0.6267 0.6781 0.3589
C12 C 0.69645(8) 0.53864(18) 0.42640(12)
H15 H 0.6855 0.4970 0.3755
C13 C 0.74744(8) 0.49129(18) 0.50996(11)
H16 H 0.7713 0.4180 0.5161
C14 C 0.76344(7) 0.55185(17) 0.58488(11)
C15 C 0.72750(7) 0.65838(17) 0.57378(11)
H17 H 0.7381 0.6996 0.6245
C16 C 0.82004(7) 0.50898(18) 0.67744(11)
H18 H 0.8295 0.5818 0.7197
C17 C 0.81560(8) 0.36862(17) 0.70832(11)
H19 H 0.8545 0.3541 0.7711
C18 C 0.76337(7) 0.36714(16) 0.70560(11)
C19 C 0.76864(8) 0.44243(18) 0.76800(11)
H20 H 0.8050 0.4928 0.8123
C20 C 0.72112(8) 0.44435(19) 0.76597(12)
H21 H 0.7248 0.4971 0.8083
C21 C 0.66823(8) 0.36961(18) 0.70231(11)
H22 H 0.6363 0.3688 0.7024
C22 C 0.66171(7) 0.29555(16) 0.63809(11)
C23 C 0.70952(7) 0.29532(16) 0.64029(11)
H23 H 0.7054 0.2455 0.5967
C24 C 0.60397(7) 0.21336(16) 0.56810(11)
H24 H 0.6030 0.1358 0.5993
O7 O 0.98118(6) 0.46185(14) 0.83982(9)
H25 H 1.0083(12) 0.533(3) 0.8722(17)
H26 H 0.9945(11) 0.411(3) 0.8147(16)
O8 O 1.0000 0.3076(2) 0.7500
H27 H 1.0322(12) 0.250(3) 0.7897(17)
H27A H 0.9678(12) 0.250(3) 0.7103(17)
O9 O 0.88482(7) 0.21496(17) 0.60682(10)
H28 H 0.8831(13) 0.261(3) 0.5653(19)
H29 H 0.8725(13) 0.124(3) 0.5857(18)
loop_
_geom_bond_atom_site_label_1
_geom_bond_atom_site_label_2
_geom_bond_site_symmetry_1
_geom_bond_site_symmetry_2
O1 H1 1_555 1_555
O2 H2 1_555 1_555
O3 H3 1_555 1_555
O4 H4 1_555 1_555
O5 H5 1_555 1_555
O6 H6 1_555 1_555
C1 O1 1_555 1_555
H7 C1 1_555 1_555
C2 C1 1_555 1_555
C3 C2 1_555 1_555
H8 C3 1_555 1_555
C4 C3 1_555 1_555
C5 C4 1_555 1_555
H9 C5 1_555 1_555
C6 C5 1_555 1_555
H10 C6 1_555 1_555
C7 C2 1_555 1_555
H11 C7 1_555 1_555
C8 O6 1_555 1_555
H12 C8 1_555 1_555
C9 O5 1_555 1_555
H13 C9 1_555 1_555
C10 C9 1_555 1_555
C11 C10 1_555 1_555
H14 C11 1_555 1_555
C12 C11 1_555 1_555
H15 C12 1_555 1_555
C13 C12 1_555 1_555
H16 C13 1_555 1_555
C14 C13 1_555 1_555
C15 C10 1_555 1_555
H17 C15 1_555 1_555
C16 O4 1_555 1_555
H18 C16 1_555 1_555
C17 O3 1_555 1_555
H19 C17 1_555 1_555
C18 C17 1_555 1_555
C19 C18 1_555 1_555
H20 C19 1_555 1_555
C20 C19 1_555 1_555
H21 C20 1_555 1_555
C21 C20 1_555 1_555
H22 C21 1_555 1_555
C22 C21 1_555 1_555
C23 C18 1_555 1_555
H23 C23 1_555 1_555
C24 O2 1_555 1_555
H24 C24 1_555 1_555
O7 H25 1_555 1_555
H26 O7 1_555 1_555
O8 H27 1_555 1_555
O9 H28 1_555 1_555
H29 O9 1_555 1_555
H27A O8 1_555 1_555
C1 C24 1_555 1_555
C4 C8 1_555 1_555
C6 C7 1_555 1_555
C8 C9 1_555 1_555
C14 C15 1_555 1_555
C14 C16 1_555 1_555
C16 C17 1_555 1_555
C22 C23 1_555 1_555
C22 C24 1_555 1_555

#END
