
#######################################################################
#
#                 Cambridge Crystallographic Data Centre
#                                CCDC 
#
#######################################################################
#
# If this CIF has been generated from an entry in the Cambridge 
# Structural Database, then it will include bibliographic, chemical, 
# crystal, experimental, refinement or atomic coordinate data resulting 
# from the CCDC's data processing and validation procedures.
#
#######################################################################

data_ZEJKUW
_chemical_formula_moiety         'C30 H38 Cl2 O2 Si2'
_chemical_name_systematic        
2,5-bis(t-Butyl(dimethyl)silyl)-1,6-bis(4-chlorophenyl)hexa-2,3,4-triene-1,6-dione
_symmetry_cell_setting           orthorhombic
_symmetry_space_group_name_H-M   'P b c a'
_symmetry_Int_Tables_number      61
_space_group_name_Hall           '-P 2ac 2ab'
loop_
_symmetry_equiv_pos_site_id
_symmetry_equiv_pos_as_xyz
1 x,y,z
2 1/2-x,-y,1/2+z
3 -x,1/2+y,1/2-z
4 1/2+x,1/2-y,-z
5 -x,-y,-z
6 1/2+x,y,1/2-z
7 x,1/2-y,1/2+z
8 1/2-x,1/2+y,z
_cell_length_a                   11.8773(7)
_cell_length_b                   13.8122(9)
_cell_length_c                   37.927(2)
_cell_angle_alpha                90
_cell_angle_beta                 90
_cell_angle_gamma                90
_cell_volume                     6221.99
_exptl_crystal_colour            red
_exptl_crystal_description       prismatic
_cell_formula_units_Z            8
loop_
_atom_site_label
_atom_site_type_symbol
_atom_site_fract_x
_atom_site_fract_y
_atom_site_fract_z
Si1 Si 0.86358(5) 0.31493(5) 0.208192(16)
Si2 Si 0.76549(6) 0.29061(4) 0.057328(16)
Cl1 Cl 1.18123(9) -0.20384(6) 0.14124(2)
Cl2 Cl 1.38711(6) -0.05039(6) 0.08043(2)
O1 O 1.11639(15) 0.23289(14) 0.21134(5)
O2 O 0.90680(15) 0.13262(13) 0.02402(4)
C1 C 1.05707(19) 0.19317(17) 0.18951(6)
C2 C 0.95501(18) 0.24423(15) 0.17608(6)
C3 C 0.93461(18) 0.23968(15) 0.14175(6)
C4 C 0.92029(18) 0.23138(15) 0.10904(6)
C5 C 0.89385(18) 0.22367(16) 0.07514(6)
C6 C 0.9531(2) 0.15376(16) 0.05168(6)
C7 C 1.08596(18) 0.09479(16) 0.17634(5)
C8 C 1.1956(2) 0.06216(19) 0.17957(6)
H1 H 1.2500 0.1024 0.1893
C9 C 1.2248(2) -0.0291(2) 0.16847(7)
H2 H 1.2989 -0.0502 0.1703
C10 C 1.1442(3) -0.08819(18) 0.15478(7)
C11 C 1.0360(2) -0.05905(18) 0.15129(7)
H3 H 0.9821 -0.1005 0.1419
C12 C 1.0067(2) 0.03332(17) 0.16196(6)
H4 H 0.9327 0.0543 0.1594
C13 C 1.06130(18) 0.10630(15) 0.06079(5)
C14 C 1.1456(2) 0.14867(16) 0.08050(6)
H5 H 1.1347 0.2101 0.0899
C15 C 1.2461(2) 0.10087(17) 0.08642(6)
H6 H 1.3029 0.1301 0.0995
C16 C 1.26084(19) 0.01007(17) 0.07279(6)
C17 C 1.1796(2) -0.03383(16) 0.05296(6)
H7 H 1.1910 -0.0955 0.0438
C18 C 1.0809(2) 0.01483(16) 0.04684(6)
H8 H 1.0257 -0.0141 0.0330
C19 C 0.8770(2) 0.2570(2) 0.25199(6)
H9 H 0.8243 0.2859 0.2680
H10 H 0.9522 0.2660 0.2607
H11 H 0.8616 0.1890 0.2499
C20 C 0.7168(2) 0.3001(2) 0.19205(7)
H12 H 0.7032 0.2331 0.1868
H13 H 0.7063 0.3382 0.1711
H14 H 0.6651 0.3212 0.2099
C21 C 0.9049(2) 0.44656(17) 0.20945(6)
C22 C 1.0127(2) 0.46047(19) 0.23121(8)
H15 H 1.0720 0.4218 0.2214
H16 H 0.9992 0.4409 0.2551
H17 H 1.0343 0.5274 0.2307
C23 C 0.8096(3) 0.5042(2) 0.22754(8)
H18 H 0.8329 0.5702 0.2307
H19 H 0.7934 0.4759 0.2501
H20 H 0.7434 0.5023 0.2131
C24 C 0.9226(3) 0.4869(2) 0.17252(7)
H21 H 0.9427 0.5541 0.1740
H22 H 0.8544 0.4802 0.1592
H23 H 0.9820 0.4517 0.1611
C25 C 0.7463(2) 0.39663(16) 0.08718(7)
H24 H 0.8150 0.4330 0.0883
H25 H 0.7268 0.3743 0.1104
H26 H 0.6870 0.4371 0.0783
C26 C 0.7935(3) 0.3368(2) 0.01237(7)
H27 H 0.7326 0.3779 0.0051
H28 H 0.7999 0.2834 -0.0037
H29 H 0.8624 0.3732 0.0124
C27 C 0.6379(2) 0.20924(17) 0.05967(6)
C28 C 0.6292(2) 0.1626(2) 0.09612(8)
H30 H 0.5624 0.1235 0.0973
H31 H 0.6257 0.2122 0.1138
H32 H 0.6941 0.1226 0.1002
C29 C 0.6377(3) 0.1309(2) 0.03130(9)
H33 H 0.7014 0.0891 0.0346
H34 H 0.6420 0.1607 0.0085
H35 H 0.5696 0.0938 0.0330
C30 C 0.5313(2) 0.2716(2) 0.05435(8)
H36 H 0.4659 0.2308 0.0549
H37 H 0.5354 0.3040 0.0320
H38 H 0.5263 0.3188 0.0729
loop_
_geom_bond_atom_site_label_1
_geom_bond_atom_site_label_2
_geom_bond_site_symmetry_1
_geom_bond_site_symmetry_2
Si1 C2 1_555 1_555
Si2 C5 1_555 1_555
Cl1 C10 1_555 1_555
Cl2 C16 1_555 1_555
O1 C1 1_555 1_555
O2 C6 1_555 1_555
C1 C2 1_555 1_555
C2 C3 1_555 1_555
C3 C4 1_555 1_555
C4 C5 1_555 1_555
C5 C6 1_555 1_555
C6 C13 1_555 1_555
C7 C1 1_555 1_555
C8 C7 1_555 1_555
H1 C8 1_555 1_555
C9 C8 1_555 1_555
H2 C9 1_555 1_555
C10 C9 1_555 1_555
C11 C10 1_555 1_555
H3 C11 1_555 1_555
C12 C7 1_555 1_555
H4 C12 1_555 1_555
C13 C14 1_555 1_555
C14 H5 1_555 1_555
C15 C14 1_555 1_555
H6 C15 1_555 1_555
C16 C15 1_555 1_555
C17 C16 1_555 1_555
H7 C17 1_555 1_555
C18 C13 1_555 1_555
H8 C18 1_555 1_555
C19 Si1 1_555 1_555
H9 C19 1_555 1_555
H10 C19 1_555 1_555
H11 C19 1_555 1_555
C20 Si1 1_555 1_555
H12 C20 1_555 1_555
H13 C20 1_555 1_555
H14 C20 1_555 1_555
C21 Si1 1_555 1_555
C22 C21 1_555 1_555
H15 C22 1_555 1_555
H16 C22 1_555 1_555
H17 C22 1_555 1_555
C23 C21 1_555 1_555
H18 C23 1_555 1_555
H19 C23 1_555 1_555
H20 C23 1_555 1_555
C24 C21 1_555 1_555
H21 C24 1_555 1_555
H22 C24 1_555 1_555
H23 C24 1_555 1_555
C25 Si2 1_555 1_555
H24 C25 1_555 1_555
H25 C25 1_555 1_555
H26 C25 1_555 1_555
C26 Si2 1_555 1_555
H27 C26 1_555 1_555
H28 C26 1_555 1_555
H29 C26 1_555 1_555
C27 Si2 1_555 1_555
C28 C27 1_555 1_555
H30 C28 1_555 1_555
H31 C28 1_555 1_555
H32 C28 1_555 1_555
C29 C27 1_555 1_555
H33 C29 1_555 1_555
H34 C29 1_555 1_555
H35 C29 1_555 1_555
C30 C27 1_555 1_555
H36 C30 1_555 1_555
H37 C30 1_555 1_555
H38 C30 1_555 1_555
C11 C12 1_555 1_555
C17 C18 1_555 1_555

#END
