
#######################################################################
#
#                 Cambridge Crystallographic Data Centre
#                                CCDC 
#
#######################################################################
#
# If this CIF has been generated from an entry in the Cambridge 
# Structural Database, then it will include bibliographic, chemical, 
# crystal, experimental, refinement or atomic coordinate data resulting 
# from the CCDC's data processing and validation procedures.
#
#######################################################################

data_ZEJKIK
_chemical_formula_moiety         'C30 H42 Cl2 O2 Si2,C2 H6 O1'
_chemical_name_systematic        
'2,5-bis(t-Butyl(dimethyl)silyl)-1,6-bis(4-chlorophenyl)hexa-2,3,4-triene-1,6-diol ethanol solvate'
_symmetry_cell_setting           triclinic
_symmetry_space_group_name_H-M   'P -1'
_symmetry_Int_Tables_number      2
_space_group_name_Hall           '-P 1'
loop_
_symmetry_equiv_pos_site_id
_symmetry_equiv_pos_as_xyz
1 x,y,z
2 -x,-y,-z
_cell_length_a                   12.7728(12)
_cell_length_b                   12.8949(12)
_cell_length_c                   13.2000(12)
_cell_angle_alpha                65.406(2)
_cell_angle_beta                 67.296(2)
_cell_angle_gamma                82.180(2)
_cell_volume                     1822.89
_exptl_crystal_colour            colorless
_exptl_crystal_description       prismatic
_cell_formula_units_Z            2
loop_
_atom_site_label
_atom_site_type_symbol
_atom_site_fract_x
_atom_site_fract_y
_atom_site_fract_z
Si1 Si 0.30414(10) 0.82114(9) 0.25118(10)
Si2 Si -0.19050(10) 0.89189(9) 0.44055(11)
Cl1 Cl 0.40777(16) 0.64903(15) 0.81415(14)
Cl2 Cl -0.26220(15) 0.73769(15) 1.06800(13)
O1 O 0.1722(3) 0.5066(2) 0.5249(2)
H1 H 0.1446 0.5017 0.4803
O2 O -0.1541(3) 0.5510(2) 0.6418(2)
H2 H -0.1060 0.5375 0.6722
C1 C 0.2496(3) 0.6011(3) 0.4615(3)
H4 H 0.3164 0.5812 0.4049
C2 C 0.2039(3) 0.7095(3) 0.3896(3)
C3 C 0.0926(4) 0.7254(3) 0.4265(3)
C4 C -0.0140(4) 0.7413(3) 0.4661(3)
C5 C -0.1233(3) 0.7561(3) 0.5122(3)
C6 C -0.1963(3) 0.6636(3) 0.6279(3)
H5 H -0.2721 0.6656 0.6250
C7 C 0.2873(3) 0.6151(3) 0.5498(3)
C8 C 0.2473(5) 0.6936(4) 0.5963(4)
H6 H 0.1933 0.7434 0.5725
C9 C 0.2836(6) 0.7031(5) 0.6792(5)
H7 H 0.2533 0.7578 0.7106
C10 C 0.3614(4) 0.6339(5) 0.7128(4)
C11 C 0.3998(5) 0.5534(5) 0.6712(5)
H8 H 0.4525 0.5026 0.6966
C12 C 0.3622(4) 0.5443(4) 0.5904(4)
H9 H 0.3900 0.4866 0.5630
C13 C -0.2096(3) 0.6835(3) 0.7375(3)
C14 C -0.3049(4) 0.6409(4) 0.8375(4)
H10 H -0.3603 0.6022 0.8361
C15 C -0.3202(4) 0.6541(5) 0.9397(4)
H11 H -0.3847 0.6233 1.0078
C16 C -0.2407(5) 0.7126(4) 0.9410(4)
C17 C -0.1442(4) 0.7534(4) 0.8448(4)
H12 H -0.0883 0.7903 0.8476
C18 C -0.1299(4) 0.7393(3) 0.7419(3)
H13 H -0.0644 0.7686 0.6746
C19 C 0.4421(4) 0.8152(4) 0.2702(4)
H14 H 0.4970 0.8649 0.1968
H15 H 0.4683 0.7385 0.2907
H16 H 0.4323 0.8393 0.3330
C20 C 0.2414(4) 0.9649(3) 0.2333(4)
H17 H 0.2187 0.9740 0.3074
H18 H 0.1764 0.9712 0.2117
H19 H 0.2970 1.0232 0.1716
C21 C 0.3271(4) 0.7891(4) 0.1176(3)
C22 C 0.3648(4) 0.6687(4) 0.1377(4)
H20 H 0.3825 0.6568 0.0658
H21 H 0.3049 0.6163 0.2016
H22 H 0.4309 0.6563 0.1585
C23 C 0.4180(4) 0.8716(4) 0.0053(4)
H23 H 0.4882 0.8632 0.0182
H24 H 0.3936 0.9486 -0.0102
H25 H 0.4288 0.8543 -0.0621
C24 C 0.2172(4) 0.8000(5) 0.0954(4)
H26 H 0.2314 0.7889 0.0238
H27 H 0.1879 0.8747 0.0865
H28 H 0.1627 0.7434 0.1620
C25 C -0.0935(4) 1.0132(4) 0.3879(5)
H29 H -0.0799 1.0135 0.4544
H30 H -0.1275 1.0834 0.3527
H31 H -0.0229 1.0058 0.3293
C26 C -0.3276(4) 0.9113(4) 0.5549(4)
H32 H -0.3126 0.9130 0.6201
H33 H -0.3795 0.8490 0.5844
H34 H -0.3604 0.9817 0.5183
C27 C -0.2203(5) 0.8827(4) 0.3171(5)
C28 C -0.1057(6) 0.8791(6) 0.2178(5)
H35 H -0.0717 0.8068 0.2459
H36 H -0.0556 0.9393 0.1987
H37 H -0.1190 0.8890 0.1476
C29 C -0.2870(6) 0.9899(5) 0.2658(5)
H38 H -0.3045 0.9851 0.2034
H39 H -0.2413 1.0575 0.2340
H40 H -0.3562 0.9930 0.3286
C30 C -0.2940(6) 0.7770(5) 0.3636(6)
H41 H -0.3243 0.7833 0.3052
H42 H -0.3552 0.7709 0.4368
H43 H -0.2488 0.7103 0.3782
O3 O 0.0054(3) 0.4712(4) 0.7344(3)
H3 H 0.0662 0.4756 0.6798
C31 C 0.0242(6) 0.4480(6) 0.8351(6)
H44 H 0.0519 0.5181 0.8278
H45 H 0.0857 0.3948 0.8365
C32 C -0.0614(7) 0.4045(7) 0.9444(6)
H46 H -0.1121 0.4640 0.9564
H47 H -0.0299 0.3735 1.0060
H48 H -0.1023 0.3453 0.9476
loop_
_geom_bond_atom_site_label_1
_geom_bond_atom_site_label_2
_geom_bond_site_symmetry_1
_geom_bond_site_symmetry_2
Si1 C2 1_555 1_555
Si2 C5 1_555 1_555
Cl1 C10 1_555 1_555
Cl2 C16 1_555 1_555
O1 H1 1_555 1_555
O2 H2 1_555 1_555
O3 H3 1_555 1_555
C1 O1 1_555 1_555
H4 C1 1_555 1_555
C2 C1 1_555 1_555
C3 C2 1_555 1_555
C4 C3 1_555 1_555
C5 C4 1_555 1_555
C6 O2 1_555 1_555
H5 C6 1_555 1_555
C7 C1 1_555 1_555
C8 C7 1_555 1_555
H6 C8 1_555 1_555
C9 C8 1_555 1_555
H7 C9 1_555 1_555
C10 C9 1_555 1_555
C11 C10 1_555 1_555
H8 C11 1_555 1_555
C12 C7 1_555 1_555
H9 C12 1_555 1_555
C13 C6 1_555 1_555
C14 C13 1_555 1_555
H10 C14 1_555 1_555
C15 C14 1_555 1_555
H11 C15 1_555 1_555
C16 C15 1_555 1_555
C17 C16 1_555 1_555
H12 C17 1_555 1_555
C18 C13 1_555 1_555
H13 C18 1_555 1_555
C19 Si1 1_555 1_555
H14 C19 1_555 1_555
H15 C19 1_555 1_555
H16 C19 1_555 1_555
C20 Si1 1_555 1_555
H17 C20 1_555 1_555
H18 C20 1_555 1_555
H19 C20 1_555 1_555
C21 Si1 1_555 1_555
C22 C21 1_555 1_555
H20 C22 1_555 1_555
H21 C22 1_555 1_555
H22 C22 1_555 1_555
C23 C21 1_555 1_555
H23 C23 1_555 1_555
H24 C23 1_555 1_555
H25 C23 1_555 1_555
C24 C21 1_555 1_555
H26 C24 1_555 1_555
H27 C24 1_555 1_555
H28 C24 1_555 1_555
C25 Si2 1_555 1_555
H29 C25 1_555 1_555
H30 C25 1_555 1_555
H31 C25 1_555 1_555
C26 Si2 1_555 1_555
H32 C26 1_555 1_555
H33 C26 1_555 1_555
H34 C26 1_555 1_555
C27 Si2 1_555 1_555
C28 C27 1_555 1_555
H35 C28 1_555 1_555
H36 C28 1_555 1_555
H37 C28 1_555 1_555
C29 C27 1_555 1_555
H38 C29 1_555 1_555
H39 C29 1_555 1_555
H40 C29 1_555 1_555
C30 C27 1_555 1_555
H41 C30 1_555 1_555
H42 C30 1_555 1_555
H43 C30 1_555 1_555
C31 O3 1_555 1_555
H44 C31 1_555 1_555
H45 C31 1_555 1_555
C32 C31 1_555 1_555
H46 C32 1_555 1_555
H47 C32 1_555 1_555
H48 C32 1_555 1_555
C5 C6 1_555 1_555
C11 C12 1_555 1_555
C17 C18 1_555 1_555

#END
