
#######################################################################
#
#                 Cambridge Crystallographic Data Centre
#                                CCDC 
#
#######################################################################
#
# If this CIF has been generated from an entry in the Cambridge 
# Structural Database, then it will include bibliographic, chemical, 
# crystal, experimental, refinement or atomic coordinate data resulting 
# from the CCDC's data processing and validation procedures.
#
#######################################################################

data_ZEJROV
_chemical_formula_moiety         'C17 H16 O3'
_chemical_name_systematic        
rac-4,5-bis(2-Methylphenyl)-1,3-dioxolan-2-one
_symmetry_cell_setting           monoclinic
_symmetry_space_group_name_H-M   'P 21/c'
_symmetry_Int_Tables_number      14
_space_group_name_Hall           '-P 2ybc'
loop_
_symmetry_equiv_pos_site_id
_symmetry_equiv_pos_as_xyz
1 x,y,z
2 -x,1/2+y,1/2-z
3 -x,-y,-z
4 x,1/2-y,1/2+z
_cell_length_a                   7.245(2)
_cell_length_b                   16.409(5)
_cell_length_c                   12.351(3)
_cell_angle_alpha                90
_cell_angle_beta                 96.03(2)
_cell_angle_gamma                90
_cell_volume                     1460.2
_exptl_crystal_colour            colorless
_chemical_melting_point          122.5-124.5deg.C
_cell_formula_units_Z            4
loop_
_atom_site_label
_atom_site_type_symbol
_atom_site_fract_x
_atom_site_fract_y
_atom_site_fract_z
O1 O 0.2513(3) 0.5059(2) -0.0967(2)
O2 O 0.1976(2) 0.4315(1) 0.0496(1)
O3 O 0.3163(2) 0.5560(1) 0.0725(1)
C1 C 0.2551(3) 0.4983(2) 0.0008(3)
C2 C 0.1946(3) 0.4496(2) 0.1657(2)
C3 C 0.3324(3) 0.5193(1) 0.1814(2)
C4 C 0.2436(3) 0.3759(1) 0.2341(2)
C5 C 0.1409(4) 0.3554(2) 0.3192(2)
C6 C 0.1944(5) 0.2866(2) 0.3816(3)
C7 C 0.3461(5) 0.2404(2) 0.3615(3)
C8 C 0.4504(5) 0.2622(2) 0.2787(3)
C9 C -0.0246(5) 0.4059(2) 0.3456(3)
C10 C 0.3986(4) 0.3293(2) 0.2157(2)
C11 C 0.2942(3) 0.5802(1) 0.2662(2)
C12 C 0.4187(3) 0.5911(2) 0.3593(2)
C13 C 0.3762(4) 0.6482(2) 0.4354(2)
C14 C 0.2170(5) 0.6950(2) 0.4209(3)
C15 C 0.0931(4) 0.6834(2) 0.3297(3)
C16 C 0.1312(4) 0.6260(2) 0.2531(2)
C17 C 0.6003(4) 0.5445(2) 0.3776(2)
H1 H 0.0511 0.4692 0.1677
H2 H 0.4733 0.4991 0.1913
H3 H 0.1127 0.2745 0.4482
H4 H 0.3762 0.1864 0.4072
H5 H 0.5668 0.2276 0.2620
H6 H -0.0425 0.4506 0.2954
H7 H -0.1336 0.3723 0.3393
H8 H -0.0024 0.4265 0.4185
H9 H 0.4617 0.3445 0.1464
H10 H 0.4799 0.6581 0.5057
H11 H 0.1873 0.7448 0.4755
H12 H -0.0324 0.7169 0.3142
H13 H 0.0428 0.6205 0.1803
H14 H 0.5694 0.4815 0.3779
H15 H 0.6794 0.5581 0.3137
H16 H 0.6775 0.5619 0.4506
loop_
_geom_bond_atom_site_label_1
_geom_bond_atom_site_label_2
_geom_bond_site_symmetry_1
_geom_bond_site_symmetry_2
O1 C1 1_555 1_555
O2 C1 1_555 1_555
O3 C1 1_555 1_555
C2 O2 1_555 1_555
C3 O3 1_555 1_555
C4 C2 1_555 1_555
C5 C4 1_555 1_555
C6 C5 1_555 1_555
C7 C6 1_555 1_555
C8 C7 1_555 1_555
C9 C5 1_555 1_555
C10 C4 1_555 1_555
C11 C3 1_555 1_555
C12 C11 1_555 1_555
C13 C12 1_555 1_555
C14 C13 1_555 1_555
C15 C14 1_555 1_555
C16 C11 1_555 1_555
C17 C12 1_555 1_555
H1 C2 1_555 1_555
H2 C3 1_555 1_555
H3 C6 1_555 1_555
H4 C7 1_555 1_555
H5 C8 1_555 1_555
H6 C9 1_555 1_555
H7 C9 1_555 1_555
H8 C9 1_555 1_555
H9 C10 1_555 1_555
H10 C13 1_555 1_555
H11 C14 1_555 1_555
H12 C15 1_555 1_555
H13 C16 1_555 1_555
H14 C17 1_555 1_555
H15 C17 1_555 1_555
H16 C17 1_555 1_555
C2 C3 1_555 1_555
C8 C10 1_555 1_555
C15 C16 1_555 1_555

#END
