
#######################################################################
#
#                 Cambridge Crystallographic Data Centre
#                                CCDC 
#
#######################################################################
#
# If this CIF has been generated from an entry in the Cambridge 
# Structural Database, then it will include bibliographic, chemical, 
# crystal, experimental, refinement or atomic coordinate data resulting 
# from the CCDC's data processing and validation procedures.
#
#######################################################################

data_ZEJSOW
_chemical_formula_moiety         'C72 H86 N4 O6'
_chemical_name_systematic        
rac-N,N'-(bis(7,7'-bis(Benzyloxy)-2,2'-bis(dodecyloxy)-1,1'-binaphthalene-6,6'-diyl)-bis(pyridine-6,2-diyl))-bis(acetamide)
_symmetry_cell_setting           triclinic
_symmetry_space_group_name_H-M   'P -1'
_symmetry_Int_Tables_number      2
_space_group_name_Hall           '-P 1'
loop_
_symmetry_equiv_pos_site_id
_symmetry_equiv_pos_as_xyz
1 x,y,z
2 -x,-y,-z
_cell_length_a                   12.802(3)
_cell_length_b                   15.362(3)
_cell_length_c                   18.764(4)
_cell_angle_alpha                105.499(6)
_cell_angle_beta                 106.77(7)
_cell_angle_gamma                98.777(7)
_cell_volume                     3297.59
_exptl_crystal_colour            colorless
_chemical_melting_point          132-33deg.C
_cell_formula_units_Z            2
loop_
_atom_site_label
_atom_site_type_symbol
_atom_site_fract_x
_atom_site_fract_y
_atom_site_fract_z
O1 O 1.1145(13) 0.8915(13) 0.3720(10)
O2 O 0.5478(8) 1.0361(7) 0.3255(6)
O3 O 0.2146(8) 0.8924(7) -0.0886(6)
C1 C 0.0612(23) 0.7998(27) -0.2059(13)
C2 C 0.0280(37) 0.7235(25) -0.2866(24)
C3 C -0.0398(46) 0.7925(49) -0.3126(50)
C4 C -0.2393(42) 0.7377(45) -0.3594(25)
C5 C -0.3054(20) 0.6664(26) -0.4419(28)
C6 C -0.4289(35) 0.6423(20) -0.5044(20)
C7 C -0.4862(27) 0.5826(23) -0.5893(24)
C8 C -0.6107(28) 0.5692(20) -0.6445(23)
C9 C -0.6861(59) 0.5203(27) -0.7351(29)
C10 C -0.7752(57) 0.5200(54) -0.7517(41)
O4 O -0.4935(10) 0.6095(9) 0.1294(8)
O5 O 0.0379(8) 0.6500(7) 0.0279(6)
O6 O 0.3078(8) 1.1235(7) 0.0877(7)
C11 C 0.4188(33) 1.2752(15) 0.1759(17)
C12 C 0.5156(23) 1.2759(21) 0.2423(25)
C13 C 0.6319(39) 1.3150(21) 0.3246(21)
C14 C 0.7295(32) 1.3576(26) 0.4025(26)
C15 C 0.8360(27) 1.3488(22) 0.4637(24)
C16 C 0.9194(40) 1.4017(25) 0.5476(21)
C17 C 1.0134(41) 1.3651(34) 0.5956(25)
C18 C 1.0420(56) 1.2687(32) 0.5801(49)
C19 C 1.1437(54) 1.3508(30) 0.6334(37)
C20 C 1.1867(36) 1.2615(36) 0.6126(29)
C21 C -0.1311(31) 0.7060(34) -0.3265(35)
C22 C 1.080(2) 0.773(1) 0.248(1)
H1 H 1.147 0.770 0.291
H2 H 1.106 0.789 0.206
H3 H 1.026 0.711 0.224
C23 C 1.060(2) 0.854(2) 0.305(2)
N1 N 0.949(1) 0.862(1) 0.269(1)
C24 C 0.904(1) 0.930(1) 0.309(1)
C25 C 0.953(2) 0.993(1) 0.382(1)
H4 H 1.030 0.995 0.414
C26 C 0.895(2) 1.057(1) 0.412(1)
H5 H 0.929 1.103 0.467
C27 C 0.786(2) 1.054(1) 0.361(1)
H6 H 0.743 1.100 0.378
C28 C 0.742(1) 0.987(1) 0.288(1)
N2 N 0.797(1) 0.923(1) 0.262(1)
C29 C 0.630(1) 0.978(1) 0.227(1)
C30 C 0.616(1) 0.940(1) 0.151(1)
H7 H 0.682 0.921 0.137
C31 C 0.517(1) 0.926(1) 0.088(1)
C32 C 0.504(1) 0.887(1) 0.009(1)
H8 H 0.570 0.870 -0.004
C33 C 0.408(1) 0.873(1) -0.051(1)
H9 H 0.402 0.844 -0.107
C34 C 0.313(1) 0.901(1) -0.031(1)
C35 C 0.322(1) 0.942(1) 0.044(1)
C36 C 0.422(1) 0.955(1) 0.109(1)
C37 C 0.433(1) 0.991(1) 0.189(1)
H10 H 0.368 1.007 0.203
C38 C 0.532(1) 1.002(1) 0.247(1)
C39 C 0.456(1) 1.062(1) 0.346(1)
H11 H 0.436 1.113 0.326
H12 H 0.390 1.007 0.322
C40 C 0.192(1) 0.828(1) -0.166(1)
H13 H 0.229 0.859 -0.196
H14 H 0.220 0.771 -0.163
H15 H -0.261 0.690 -0.471
H16 H -0.292 0.605 -0.439
H17 H -0.446 0.704 -0.503
H18 H -0.473 0.612 -0.478
H19 H -0.440 0.610 -0.617
H20 H -0.476 0.519 -0.592
H21 H -0.622 0.634 -0.634
H22 H -0.654 0.535 -0.620
H23 H -0.681 0.454 -0.748
H24 H -0.646 0.552 -0.763
H25 H -0.773 0.485 -0.804
H26 H -0.755 0.588 -0.743
H27 H -0.852 0.503 -0.750
C41 C -0.463(2) 0.751(1) 0.232(1)
H28 H -0.428 0.819 0.258
H29 H -0.453 0.719 0.272
H30 H -0.545 0.742 0.203
C42 C -0.438(2) 0.686(2) 0.166(1)
N3 N -0.340(1) 0.727(1) 0.156(1)
C43 C -0.302(1) 0.684(1) 0.096(1)
C44 C -0.353(1) 0.601(1) 0.035(1)
H31 H -0.425 0.562 0.032
C45 C -0.306(1) 0.571(1) -0.021(1)
H32 H -0.344 0.513 -0.067
C46 C -0.201(1) 0.625(1) -0.013(1)
H33 H -0.162 0.604 -0.051
C47 C -0.154(1) 0.706(1) 0.051(1)
N4 N -0.200(1) 0.735(1) 0.104(1)
C48 C -0.053(1) 0.769(1) 0.057(1)
C49 C -0.049(1) 0.864(1) 0.076(1)
H34 H -0.115 0.885 0.087
C50 C 0.039(1) 0.930(1) 0.081(1)
C51 C 0.040(1) 1.027(1) 0.101(1)
H35 H -0.025 1.047 0.114
C52 C 0.123(1) 1.092(1) 0.104(1)
H36 H 0.120 1.159 0.118
C53 C 0.218(1) 1.062(1) 0.085(1)
C54 C 0.221(1) 0.969(1) 0.064(1)
C55 C 0.133(1) 0.902(1) 0.062(1)
C56 C 0.131(1) 0.806(1) 0.044(1)
H37 H 0.196 0.784 0.031
C57 C 0.043(1) 0.744(1) 0.041(1)
C58 C 0.143(1) 0.621(1) 0.037(1)
H38 H 0.135 0.561 0.049
H39 H 0.204 0.670 0.081
C59 C 0.317(2) 1.222(1) 0.120(1)
H40 H 0.262 1.228 0.148
H41 H 0.296 1.247 0.076
H42 H 0.458 1.288 0.139
H43 H 0.397 1.333 0.201
H44 H 0.469 1.250 0.270
H45 H 0.540 1.224 0.211
H46 H 0.659 1.370 0.310
H47 H 0.667 1.263 0.306
H48 H 0.745 1.426 0.410
H49 H 0.678 1.343 0.431
C60 C 0.405(1) 1.076(1) 0.466(1)
C61 C 0.433(1) 1.105(1) 0.548(1)
C62 C 0.542(1) 1.152(1) 0.596(1)
C63 C 0.624(1) 1.170(1) 0.563(1)
C64 C 0.596(1) 1.141(1) 0.481(1)
C65 C 0.487(1) 1.094(1) 0.433(1)
H50 H 0.326 1.042 0.431
H51 H 0.374 1.092 0.572
H52 H 0.562 1.173 0.655
H53 H 0.703 1.204 0.598
H54 H 0.655 1.154 0.458
C66 C 0.286(1) 0.635(1) -0.027(1)
C67 C 0.318(1) 0.612(1) -0.093(1)
C68 C 0.239(1) 0.559(1) -0.166(1)
C69 C 0.128(1) 0.528(1) -0.173(1)
C70 C 0.095(1) 0.551(1) -0.107(1)
C71 C 0.174(1) 0.605(1) -0.034(1)
H55 H 0.342 0.674 0.026
H56 H 0.398 0.634 -0.088
H57 H 0.263 0.542 -0.213
H58 H 0.071 0.490 -0.226
H59 H 0.015 0.529 -0.112
loop_
_geom_bond_atom_site_label_1
_geom_bond_atom_site_label_2
_geom_bond_site_symmetry_1
_geom_bond_site_symmetry_2
O1 C23 1_555 1_555
O2 C38 1_555 1_555
O3 C34 1_555 1_555
C1 C2 1_555 1_555
C2 C3 1_555 1_555
C3 C21 1_555 1_555
C4 C5 1_555 1_555
C5 C6 1_555 1_555
C6 C7 1_555 1_555
C7 C8 1_555 1_555
C8 C9 1_555 1_555
C9 C10 1_555 1_555
C10 H25 1_555 1_555
O4 C42 1_555 1_555
O5 C57 1_555 1_555
O6 C53 1_555 1_555
C11 C12 1_555 1_555
C12 C13 1_555 1_555
C13 C14 1_555 1_555
C14 C15 1_555 1_555
C15 C16 1_555 1_555
C16 C17 1_555 1_555
C17 C18 1_555 1_555
C18 C19 1_555 1_555
C19 C20 1_555 1_555
C21 C4 1_555 1_555
C22 H1 1_555 1_555
H2 C22 1_555 1_555
H3 C22 1_555 1_555
C23 C22 1_555 1_555
N1 C23 1_555 1_555
C24 N1 1_555 1_555
C25 C24 1_555 1_555
H4 C25 1_555 1_555
C26 C25 1_555 1_555
H5 C26 1_555 1_555
C27 C26 1_555 1_555
H6 C27 1_555 1_555
C28 C27 1_555 1_555
N2 C24 1_555 1_555
C29 C28 1_555 1_555
C30 C29 1_555 1_555
H7 C30 1_555 1_555
C31 C30 1_555 1_555
C32 C31 1_555 1_555
H8 C32 1_555 1_555
C33 C32 1_555 1_555
H9 C33 1_555 1_555
C34 C33 1_555 1_555
C35 C34 1_555 1_555
C36 C31 1_555 1_555
C37 C36 1_555 1_555
H10 C37 1_555 1_555
C38 C29 1_555 1_555
C39 O2 1_555 1_555
H11 C39 1_555 1_555
H12 C39 1_555 1_555
C40 O3 1_555 1_555
H13 C40 1_555 1_555
H14 C40 1_555 1_555
H15 C5 1_555 1_555
H16 C5 1_555 1_555
H17 C6 1_555 1_555
H18 C6 1_555 1_555
H19 C7 1_555 1_555
H20 C7 1_555 1_555
H21 C8 1_555 1_555
H22 C8 1_555 1_555
H23 C9 1_555 1_555
H24 C9 1_555 1_555
H26 C10 1_555 1_555
H27 C10 1_555 1_555
C41 H28 1_555 1_555
H29 C41 1_555 1_555
H30 C41 1_555 1_555
C42 C41 1_555 1_555
N3 C42 1_555 1_555
C43 N3 1_555 1_555
C44 C43 1_555 1_555
H31 C44 1_555 1_555
C45 C44 1_555 1_555
H32 C45 1_555 1_555
C46 C45 1_555 1_555
H33 C46 1_555 1_555
C47 C46 1_555 1_555
N4 C43 1_555 1_555
C48 C47 1_555 1_555
C49 C48 1_555 1_555
H34 C49 1_555 1_555
C50 C49 1_555 1_555
C51 C50 1_555 1_555
H35 C51 1_555 1_555
C52 C51 1_555 1_555
H36 C52 1_555 1_555
C53 C52 1_555 1_555
C54 C35 1_555 1_555
C55 C50 1_555 1_555
C56 C55 1_555 1_555
H37 C56 1_555 1_555
C57 C48 1_555 1_555
C58 O5 1_555 1_555
H38 C58 1_555 1_555
H39 C58 1_555 1_555
C59 O6 1_555 1_555
H40 C59 1_555 1_555
H41 C59 1_555 1_555
H42 C11 1_555 1_555
H43 C11 1_555 1_555
H44 C12 1_555 1_555
H45 C12 1_555 1_555
H46 C13 1_555 1_555
H47 C13 1_555 1_555
H48 C14 1_555 1_555
H49 C14 1_555 1_555
C60 C61 1_555 1_555
C61 C62 1_555 1_555
C62 C63 1_555 1_555
C63 C64 1_555 1_555
C64 C65 1_555 1_555
C65 C39 1_555 1_555
H50 C60 1_555 1_555
H51 C61 1_555 1_555
H52 C62 1_555 1_555
H53 C63 1_555 1_555
H54 C64 1_555 1_555
C66 C67 1_555 1_555
C67 C68 1_555 1_555
C68 C69 1_555 1_555
C69 C70 1_555 1_555
C70 C71 1_555 1_555
C71 C58 1_555 1_555
H55 C66 1_555 1_555
H56 C67 1_555 1_555
H57 C68 1_555 1_555
H58 C69 1_555 1_555
H59 C70 1_555 1_555
C1 C40 1_555 1_555
C11 C59 1_555 1_555
C28 N2 1_555 1_555
C35 C36 1_555 1_555
C37 C38 1_555 1_555
C47 N4 1_555 1_555
C53 C54 1_555 1_555
C54 C55 1_555 1_555
C56 C57 1_555 1_555
C60 C65 1_555 1_555
C66 C71 1_555 1_555

#END
