
#######################################################################
#
#                 Cambridge Crystallographic Data Centre
#                                CCDC 
#
#######################################################################
#
# If this CIF has been generated from an entry in the Cambridge 
# Structural Database, then it will include bibliographic, chemical, 
# crystal, experimental, refinement or atomic coordinate data resulting 
# from the CCDC's data processing and validation procedures.
#
#######################################################################

data_ZEKFUT
_chemical_formula_moiety         'C16 H28 O5'
_chemical_name_systematic        
2-(5-hydroxyhexyl)octahydro-2H-3,9a-epoxy-1-benzoxepine-6,9-diol
_symmetry_cell_setting           monoclinic
_symmetry_space_group_name_H-M   'P 21'
_symmetry_Int_Tables_number      4
_space_group_name_Hall           'P 2yb'
loop_
_symmetry_equiv_pos_site_id
_symmetry_equiv_pos_as_xyz
1 x,y,z
2 -x,1/2+y,-z
_cell_length_a                   5.4895(4)
_cell_length_b                   13.2356(12)
_cell_length_c                   11.0897(10)
_cell_angle_alpha                90
_cell_angle_beta                 91.805(2)
_cell_angle_gamma                90
_cell_volume                     805.343
_cell_formula_units_Z            2
loop_
_atom_site_label
_atom_site_type_symbol
_atom_site_fract_x
_atom_site_fract_y
_atom_site_fract_z
O1 O -0.0202(3) 0.3851(2) 0.17072(18)
O2 O 0.3586(3) 0.32308(17) 0.21190(17)
O3 O 0.0527(4) 0.2863(2) 0.39937(18)
H1 H -0.0655 0.3230 0.4090
O4 O 0.4993(4) 0.1448(2) 0.0940(2)
H2 H 0.5295 0.1889 0.1442
O5 O 0.4099(4) 0.8538(2) 0.54184(19)
H3 H 0.5363 0.8281 0.5686
C1 C 0.1514(6) 0.4656(3) 0.1518(3)
H4 H 0.1050 0.5019 0.0775
C2 C 0.3886(5) 0.4087(3) 0.1335(3)
H5 H 0.5298 0.4495 0.1594
C3 C 0.4146(6) 0.3704(3) 0.0047(3)
H6 H 0.5638 0.3316 -0.0001
H7 H 0.4260 0.4276 -0.0496
C4 C 0.1970(6) 0.3040(3) -0.0354(3)
H8 H 0.2439 0.2625 -0.1030
H9 H 0.0641 0.3473 -0.0632
C5 C 0.1062(5) 0.2349(3) 0.0654(3)
H10 H -0.0652 0.2197 0.0458
C6 C 0.1131(5) 0.2930(3) 0.1843(3)
C7 C 0.0206(6) 0.2323(3) 0.2905(3)
H11 H -0.1540 0.2198 0.2767
C8 C 0.1499(7) 0.1317(3) 0.3002(3)
H12 H 0.0768 0.0917 0.3628
H13 H 0.3194 0.1429 0.3237
C9 C 0.1372(6) 0.0733(3) 0.1828(3)
H14 H -0.0312 0.0558 0.1636
H15 H 0.2285 0.0109 0.1926
C10 C 0.2392(5) 0.1335(3) 0.0785(3)
H16 H 0.2074 0.0949 0.0042
C11 C 0.1496(6) 0.5380(3) 0.2571(3)
H17 H -0.0152 0.5629 0.2656
H18 H 0.1943 0.5012 0.3301
C12 C 0.3188(7) 0.6274(3) 0.2464(4)
H19 H 0.2939 0.6572 0.1670
H20 H 0.4857 0.6035 0.2526
C13 C 0.2840(7) 0.7088(3) 0.3411(3)
H21 H 0.2844 0.6774 0.4201
H22 H 0.1258 0.7401 0.3270
C14 C 0.4796(8) 0.7909(3) 0.3413(4)
H23 H 0.6337 0.7605 0.3664
H24 H 0.4958 0.8144 0.2591
C15 C 0.4382(6) 0.8804(3) 0.4192(3)
H25 H 0.2841 0.9109 0.3910
C16 C 0.6338(8) 0.9599(4) 0.4057(4)
H26 H 0.5886 1.0200 0.4480
H27 H 0.6509 0.9751 0.3218
H28 H 0.7858 0.9349 0.4389
loop_
_geom_bond_atom_site_label_1
_geom_bond_atom_site_label_2
_geom_bond_site_symmetry_1
_geom_bond_site_symmetry_2
O1 C1 1_555 1_555
O2 C2 1_555 1_555
O3 H1 1_555 1_555
O4 H2 1_555 1_555
O5 H3 1_555 1_555
C1 H4 1_555 1_555
C2 C1 1_555 1_555
H5 C2 1_555 1_555
C3 C2 1_555 1_555
H6 C3 1_555 1_555
H7 C3 1_555 1_555
C4 C3 1_555 1_555
H8 C4 1_555 1_555
H9 C4 1_555 1_555
C5 C4 1_555 1_555
H10 C5 1_555 1_555
C6 O1 1_555 1_555
C7 O3 1_555 1_555
H11 C7 1_555 1_555
C8 C7 1_555 1_555
H12 C8 1_555 1_555
H13 C8 1_555 1_555
C9 C8 1_555 1_555
H14 C9 1_555 1_555
H15 C9 1_555 1_555
C10 O4 1_555 1_555
H16 C10 1_555 1_555
C11 C1 1_555 1_555
H17 C11 1_555 1_555
H18 C11 1_555 1_555
C12 C11 1_555 1_555
H19 C12 1_555 1_555
H20 C12 1_555 1_555
C13 C12 1_555 1_555
H21 C13 1_555 1_555
H22 C13 1_555 1_555
C14 C13 1_555 1_555
H23 C14 1_555 1_555
H24 C14 1_555 1_555
C15 O5 1_555 1_555
H25 C15 1_555 1_555
C16 C15 1_555 1_555
H26 C16 1_555 1_555
H27 C16 1_555 1_555
H28 C16 1_555 1_555
O2 C6 1_555 1_555
C5 C6 1_555 1_555
C5 C10 1_555 1_555
C6 C7 1_555 1_555
C9 C10 1_555 1_555
C14 C15 1_555 1_555

#END
