
#######################################################################
#
#                 Cambridge Crystallographic Data Centre
#                                CCDC 
#
#######################################################################
#
# If this CIF has been generated from an entry in the Cambridge 
# Structural Database, then it will include bibliographic, chemical, 
# crystal, experimental, refinement or atomic coordinate data resulting 
# from the CCDC's data processing and validation procedures.
#
#######################################################################

data_ZEKSIT
_chemical_formula_moiety         'C26 H18 O1'
_chemical_name_systematic        9-(Diphenylmethylene)-9H-xanthene
_symmetry_cell_setting           monoclinic
_symmetry_space_group_name_H-M   'P 21/c'
_symmetry_Int_Tables_number      14
_space_group_name_Hall           '-P 2ybc'
loop_
_symmetry_equiv_pos_site_id
_symmetry_equiv_pos_as_xyz
1 x,y,z
2 -x,1/2+y,1/2-z
3 -x,-y,-z
4 x,1/2-y,1/2+z
_cell_length_a                   11.9746(15)
_cell_length_b                   9.4799(12)
_cell_length_c                   19.8636(19)
_cell_angle_alpha                90
_cell_angle_beta                 125.669(5)
_cell_angle_gamma                90
_cell_volume                     1831.86
_cell_formula_units_Z            4
loop_
_atom_site_label
_atom_site_type_symbol
_atom_site_fract_x
_atom_site_fract_y
_atom_site_fract_z
O1 O 0.61507(10) 0.43098(10) 0.97587(6)
C1 C 0.80758(16) 0.36157(16) 0.75159(9)
H1 H 0.8970 0.4009 0.7789
C2 C 0.76057(18) 0.26564(16) 0.68739(10)
H2 H 0.8190 0.2382 0.6719
C3 C 0.62945(17) 0.20973(16) 0.64575(9)
H3 H 0.5984 0.1436 0.6023
C4 C 0.54431(16) 0.25049(15) 0.66766(9)
H4 H 0.4538 0.2134 0.6388
C5 C 0.59059(14) 0.34559(15) 0.73187(9)
H5 H 0.5307 0.3741 0.7461
C6 C 0.72351(14) 0.40000(14) 0.77586(8)
C7 C 0.77089(13) 0.50071(14) 0.84553(8)
C8 C 0.80453(14) 0.64374(14) 0.82957(8)
C9 C 0.69764(15) 0.72919(15) 0.76903(8)
H6 H 0.6055 0.6966 0.7397
C10 C 0.72425(16) 0.86117(16) 0.75112(9)
H7 H 0.6505 0.9191 0.7105
C11 C 0.85862(17) 0.90837(16) 0.79261(9)
H8 H 0.8771 0.9989 0.7807
C12 C 0.96530(16) 0.82343(16) 0.85116(10)
H9 H 1.0574 0.8556 0.8794
C13 C 0.93910(15) 0.69114(15) 0.86916(9)
H10 H 1.0135 0.6326 0.9087
C14 C 0.76799(13) 0.46677(13) 0.91094(8)
C15 C 0.78554(13) 0.56692(13) 0.97425(8)
C16 C 0.87466(14) 0.68337(14) 1.00790(9)
H11 H 0.9344 0.7007 0.9920
C17 C 0.87756(16) 0.77338(15) 1.06373(9)
H12 H 0.9377 0.8524 1.0847
C18 C 0.79339(16) 0.74925(15) 1.08942(9)
H13 H 0.7951 0.8120 1.1273
C19 C 0.70708(15) 0.63342(15) 1.05954(9)
H14 H 0.6498 0.6151 1.0771
C20 C 0.70535(14) 0.54418(14) 1.00339(8)
C21 C 0.65352(14) 0.31149(14) 0.95365(8)
C22 C 0.60894(15) 0.18289(15) 0.96325(9)
H15 H 0.5529 0.1792 0.9827
C23 C 0.64720(16) 0.06051(15) 0.94422(9)
H16 H 0.6164 -0.0282 0.9497
C24 C 0.73099(16) 0.06685(15) 0.91691(9)
H17 H 0.7599 -0.0177 0.9057
C25 C 0.77207(14) 0.19602(14) 0.90611(8)
H18 H 0.8287 0.1990 0.8871
C26 C 0.73180(13) 0.32272(14) 0.92261(8)
loop_
_geom_bond_atom_site_label_1
_geom_bond_atom_site_label_2
_geom_bond_site_symmetry_1
_geom_bond_site_symmetry_2
O1 C20 1_555 1_555
C1 H1 1_555 1_555
C2 C1 1_555 1_555
H2 C2 1_555 1_555
C3 C2 1_555 1_555
H3 C3 1_555 1_555
C4 C3 1_555 1_555
H4 C4 1_555 1_555
C5 C4 1_555 1_555
H5 C5 1_555 1_555
C6 C1 1_555 1_555
C7 C6 1_555 1_555
C8 C7 1_555 1_555
C9 C8 1_555 1_555
H6 C9 1_555 1_555
C10 C9 1_555 1_555
H7 C10 1_555 1_555
C11 C10 1_555 1_555
H8 C11 1_555 1_555
C12 C11 1_555 1_555
H9 C12 1_555 1_555
C13 C8 1_555 1_555
H10 C13 1_555 1_555
C14 C7 1_555 1_555
C15 C14 1_555 1_555
C16 C15 1_555 1_555
H11 C16 1_555 1_555
C17 C16 1_555 1_555
H12 C17 1_555 1_555
C18 C17 1_555 1_555
H13 C18 1_555 1_555
C19 C18 1_555 1_555
H14 C19 1_555 1_555
C20 C15 1_555 1_555
C21 O1 1_555 1_555
C22 C21 1_555 1_555
H15 C22 1_555 1_555
C23 C22 1_555 1_555
H16 C23 1_555 1_555
C24 C23 1_555 1_555
H17 C24 1_555 1_555
C25 C24 1_555 1_555
H18 C25 1_555 1_555
C26 C14 1_555 1_555
C5 C6 1_555 1_555
C12 C13 1_555 1_555
C19 C20 1_555 1_555
C21 C26 1_555 1_555
C25 C26 1_555 1_555

#END
