
#######################################################################
#
#                 Cambridge Crystallographic Data Centre
#                                CCDC 
#
#######################################################################
#
# If this CIF has been generated from an entry in the Cambridge 
# Structural Database, then it will include bibliographic, chemical, 
# crystal, experimental, refinement or atomic coordinate data resulting 
# from the CCDC's data processing and validation procedures.
#
#######################################################################

data_ZELSOY
_chemical_formula_moiety         'C18 H32 Br4 O2'
_chemical_name_systematic        '9,10,12,13-Tetrabromostearic acid'
_symmetry_cell_setting           triclinic
_symmetry_space_group_name_H-M   'P -1'
_symmetry_Int_Tables_number      2
_space_group_name_Hall           '-P 1'
loop_
_symmetry_equiv_pos_site_id
_symmetry_equiv_pos_as_xyz
1 x,y,z
2 -x,-y,-z
_cell_length_a                   8.012(3)
_cell_length_b                   8.808(2)
_cell_length_c                   32.818(10)
_cell_angle_alpha                85.10(2)
_cell_angle_beta                 89.77(3)
_cell_angle_gamma                75.13(2)
_cell_volume                     2229.83
_exptl_crystal_colour            colorless
_chemical_melting_point          123deg.C
_cell_formula_units_Z            4
loop_
_atom_site_label
_atom_site_type_symbol
_atom_site_fract_x
_atom_site_fract_y
_atom_site_fract_z
Br1 Br 1.1515(2) 0.4120(2) 0.1870(1)
Br2 Br 1.2573(2) 0.5703(2) 0.2765(1)
Br3 Br 1.4726(2) 0.1616(2) 0.3515(1)
Br4 Br 1.2086(2) -0.0858(2) 0.3312(1)
O1 O 2.3265(19) 0.4334(13) 0.0140(5)
O2 O 2.3952(26) 0.6447(24) 0.0250(7)
C1 C 2.3139(30) 0.5394(25) 0.0304(8)
C2 C 2.1436(26) 0.6116(23) 0.0504(8)
C3 C 2.0475(26) 0.4828(22) 0.0626(6)
C4 C 1.8954(26) 0.5517(25) 0.0877(6)
C5 C 1.7967(26) 0.4351(23) 0.1041(6)
C6 C 1.6702(24) 0.5134(22) 0.1396(6)
C7 C 1.5618(22) 0.4094(21) 0.1536(5)
C8 C 1.4853(17) 0.4619(16) 0.1958(5)
C9 C 1.3786(17) 0.3590(15) 0.2146(4)
C10 C 1.3599(17) 0.3586(14) 0.2599(4)
C11 C 1.2594(17) 0.2441(13) 0.2793(4)
C12 C 1.2435(16) 0.2356(14) 0.3251(4)
C13 C 1.1245(16) 0.1359(14) 0.3421(4)
C14 C 1.0812(17) 0.1548(15) 0.3861(4)
C15 C 0.9377(18) 0.0803(17) 0.4017(4)
C16 C 0.8701(16) 0.1347(14) 0.4427(4)
C17 C 0.7503(17) 0.0402(15) 0.4620(4)
C18 C 0.6857(18) 0.0961(15) 0.5022(4)
H1 H 2.4903(26) 0.6102(24) 0.0153(7)
H2 H 2.1422(26) 0.6804(23) 0.0721(8)
H3 H 2.0778(26) 0.6694(23) 0.0267(8)
H4 H 2.1403(26) 0.4051(22) 0.0771(6)
H5 H 2.0105(26) 0.4396(22) 0.0390(6)
H6 H 1.9392(26) 0.5961(25) 0.1102(6)
H7 H 1.8125(26) 0.6363(25) 0.0724(6)
H8 H 1.8802(26) 0.3448(23) 0.1172(6)
H9 H 1.7394(26) 0.3997(23) 0.0822(6)
H10 H 1.7295(24) 0.5406(22) 0.1625(6)
H11 H 1.5943(24) 0.6097(22) 0.1270(6)
H12 H 1.6332(22) 0.3021(21) 0.1570(5)
H13 H 1.4685(22) 0.4139(21) 0.1345(5)
H14 H 1.5797(17) 0.4602(16) 0.2144(5)
H15 H 1.4139(17) 0.5691(16) 0.1921(5)
H16 H 1.4363(17) 0.2509(15) 0.2089(4)
H17 H 1.4757(17) 0.3232(14) 0.2722(4)
H18 H 1.1455(17) 0.2679(13) 0.2668(4)
H19 H 1.3199(17) 0.1390(13) 0.2728(4)
H20 H 1.1925(16) 0.3428(14) 0.3326(4)
H21 H 1.0160(16) 0.1736(14) 0.3265(4)
H22 H 1.1815(17) 0.1130(15) 0.4038(4)
H23 H 1.0420(17) 0.2670(15) 0.3891(4)
H24 H 0.9827(18) -0.0333(17) 0.4044(4)
H25 H 0.8441(18) 0.1065(17) 0.3817(4)
H26 H 0.9668(16) 0.1294(14) 0.4608(4)
H27 H 0.8043(16) 0.2439(14) 0.4387(4)
H28 H 0.8177(17) -0.0679(15) 0.4675(4)
H29 H 0.6570(17) 0.0407(15) 0.4433(4)
H30 H 0.5932(18) 0.0497(15) 0.5103(4)
H31 H 0.6425(18) 0.2085(15) 0.4979(4)
H32 H 0.7730(18) 0.0710(15) 0.5234(4)
Br5 Br 0.8288(2) 1.1287(2) 0.2478(1)
Br6 Br 0.5722(2) 0.8750(2) 0.2223(1)
Br7 Br 0.7858(2) 0.4716(2) 0.2975(1)
Br8 Br 0.8721(2) 0.6378(2) 0.3893(1)
O3 O 1.8589(19) 1.0715(33) 0.0361(6)
O4 O 1.8397(32) 0.9390(30) -0.0091(11)
C19 C 1.8037(34) 0.9983(34) 0.0250(9)
C20 C 1.6050(27) 1.0027(35) 0.0308(7)
C21 C 1.5684(24) 1.0012(25) 0.0771(6)
C22 C 1.3928(28) 0.9916(33) 0.0867(8)
C23 C 1.3157(25) 1.0187(27) 0.1235(7)
C24 C 1.1494(23) 0.9500(25) 0.1330(5)
C25 C 1.1090(18) 0.9659(16) 0.1754(5)
C26 C 0.9522(17) 0.9063(15) 0.1888(4)
C27 C 0.9152(16) 0.9117(13) 0.2334(4)
C28 C 0.8001(15) 0.8108(13) 0.2498(4)
C29 C 0.7764(16) 0.7994(14) 0.2961(4)
C30 C 0.6769(16) 0.6869(13) 0.3134(4)
C31 C 0.6524(15) 0.6817(15) 0.3587(4)
C32 C 0.5506(16) 0.5680(15) 0.3754(4)
C33 C 0.4676(17) 0.5999(14) 0.4161(4)
C34 C 0.3661(17) 0.4781(15) 0.4287(5)
C35 C 0.2704(17) 0.5074(15) 0.4688(4)
C36 C 0.1856(18) 0.3781(16) 0.4817(5)
H33 H 1.9335(32) 0.9259(30) -0.0203(11)
H34 H 1.5269(27) 1.0844(35) 0.0134(7)
H35 H 1.6049(27) 0.8992(35) 0.0226(7)
H36 H 1.5734(24) 1.1031(25) 0.0855(6)
H37 H 1.6610(24) 0.9187(25) 0.0901(6)
H38 H 1.3162(28) 1.0456(33) 0.0643(8)
H39 H 1.4041(28) 0.8794(33) 0.0862(8)
H40 H 1.2909(25) 1.1327(27) 0.1228(7)
H41 H 1.3975(25) 0.9746(27) 0.1457(7)
H42 H 1.0546(23) 1.0195(25) 0.1170(5)
H43 H 1.1626(23) 0.8434(25) 0.1254(5)
H44 H 1.0875(18) 1.0742(16) 0.1823(5)
H45 H 1.2087(18) 0.9038(16) 0.1912(5)
H46 H 0.8513(17) 0.9714(15) 0.1740(4)
H47 H 0.9716(17) 0.7997(15) 0.1808(4)
H48 H 1.0255(16) 0.8680(13) 0.2479(4)
H49 H 0.8508(15) 0.7023(13) 0.2432(4)
H50 H 0.8912(16) 0.7682(14) 0.3082(4)
H51 H 0.7216(16) 0.9035(14) 0.3043(4)
H52 H 0.5620(16) 0.7191(13) 0.3006(4)
H53 H 0.5868(15) 0.7872(15) 0.3647(4)
H54 H 0.4619(16) 0.5684(15) 0.3554(4)
H55 H 0.6268(16) 0.4627(15) 0.3781(4)
H56 H 0.3891(17) 0.7042(14) 0.4137(4)
H57 H 0.5537(17) 0.5978(14) 0.4369(4)
H58 H 0.2835(17) 0.4783(15) 0.4072(4)
H59 H 0.4460(17) 0.3745(15) 0.4315(4)
H60 H 0.1828(17) 0.6065(15) 0.4654(4)
H61 H 0.3514(17) 0.5157(15) 0.4898(4)
H62 H 0.0917(18) 0.3814(16) 0.4634(5)
H63 H 0.1434(18) 0.3896(16) 0.5090(5)
H64 H 0.2698(18) 0.2791(16) 0.4810(5)
loop_
_geom_bond_atom_site_label_1
_geom_bond_atom_site_label_2
_geom_bond_site_symmetry_1
_geom_bond_site_symmetry_2
Br1 C9 1_555 1_555
Br2 C10 1_555 1_555
Br3 C12 1_555 1_555
Br4 C13 1_555 1_555
O1 C1 1_555 1_555
O2 C1 1_555 1_555
C1 C2 1_555 1_555
C2 C3 1_555 1_555
C3 C4 1_555 1_555
C4 C5 1_555 1_555
C5 C6 1_555 1_555
C6 C7 1_555 1_555
C7 C8 1_555 1_555
C8 C9 1_555 1_555
C9 C10 1_555 1_555
C10 C11 1_555 1_555
C11 C12 1_555 1_555
C12 C13 1_555 1_555
C13 C14 1_555 1_555
C14 C15 1_555 1_555
C15 C16 1_555 1_555
C16 C17 1_555 1_555
C17 C18 1_555 1_555
C18 H30 1_555 1_555
H1 O2 1_555 1_555
H2 C2 1_555 1_555
H3 C2 1_555 1_555
H4 C3 1_555 1_555
H5 C3 1_555 1_555
H6 C4 1_555 1_555
H7 C4 1_555 1_555
H8 C5 1_555 1_555
H9 C5 1_555 1_555
H10 C6 1_555 1_555
H11 C6 1_555 1_555
H12 C7 1_555 1_555
H13 C7 1_555 1_555
H14 C8 1_555 1_555
H15 C8 1_555 1_555
H16 C9 1_555 1_555
H17 C10 1_555 1_555
H18 C11 1_555 1_555
H19 C11 1_555 1_555
H20 C12 1_555 1_555
H21 C13 1_555 1_555
H22 C14 1_555 1_555
H23 C14 1_555 1_555
H24 C15 1_555 1_555
H25 C15 1_555 1_555
H26 C16 1_555 1_555
H27 C16 1_555 1_555
H28 C17 1_555 1_555
H29 C17 1_555 1_555
H31 C18 1_555 1_555
H32 C18 1_555 1_555
Br5 C27 1_555 1_555
Br6 C28 1_555 1_555
Br7 C30 1_555 1_555
Br8 C31 1_555 1_555
O3 C19 1_555 1_555
O4 C19 1_555 1_555
C19 C20 1_555 1_555
C20 C21 1_555 1_555
C21 C22 1_555 1_555
C22 C23 1_555 1_555
C23 C24 1_555 1_555
C24 C25 1_555 1_555
C25 C26 1_555 1_555
C26 C27 1_555 1_555
C27 C28 1_555 1_555
C28 C29 1_555 1_555
C29 C30 1_555 1_555
C30 C31 1_555 1_555
C31 C32 1_555 1_555
C32 C33 1_555 1_555
C33 C34 1_555 1_555
C34 C35 1_555 1_555
C35 C36 1_555 1_555
C36 H62 1_555 1_555
H33 O4 1_555 1_555
H34 C20 1_555 1_555
H35 C20 1_555 1_555
H36 C21 1_555 1_555
H37 C21 1_555 1_555
H38 C22 1_555 1_555
H39 C22 1_555 1_555
H40 C23 1_555 1_555
H41 C23 1_555 1_555
H42 C24 1_555 1_555
H43 C24 1_555 1_555
H44 C25 1_555 1_555
H45 C25 1_555 1_555
H46 C26 1_555 1_555
H47 C26 1_555 1_555
H48 C27 1_555 1_555
H49 C28 1_555 1_555
H50 C29 1_555 1_555
H51 C29 1_555 1_555
H52 C30 1_555 1_555
H53 C31 1_555 1_555
H54 C32 1_555 1_555
H55 C32 1_555 1_555
H56 C33 1_555 1_555
H57 C33 1_555 1_555
H58 C34 1_555 1_555
H59 C34 1_555 1_555
H60 C35 1_555 1_555
H61 C35 1_555 1_555
H63 C36 1_555 1_555
H64 C36 1_555 1_555

#END
