
#######################################################################
#
#                 Cambridge Crystallographic Data Centre
#                                CCDC 
#
#######################################################################
#
# If this CIF has been generated from an entry in the Cambridge 
# Structural Database, then it will include bibliographic, chemical, 
# crystal, experimental, refinement or atomic coordinate data resulting 
# from the CCDC's data processing and validation procedures.
#
#######################################################################

data_ZENJIO
_chemical_formula_moiety         'C46 H28 N6 O3'
_chemical_name_systematic        
'4-[22-(4-cyanophenyl)-14-(4,7-dimethoxynaphthalen-1-yl)-20-oxo-19,21,23,24-tetraazahexacyclo[16.3.1.1^5,8^.1^10,13^.0^4,21^.0^15,19^]tetracosa-1,3,5(24),6,8,10,12,14,16,18(22)-decaen-9-yl]benzonitrile unknown solvate'
_symmetry_cell_setting           triclinic
_symmetry_space_group_name_H-M   'P -1'
_symmetry_Int_Tables_number      2
_space_group_name_Hall           '-P 1'
loop_
_symmetry_equiv_pos_site_id
_symmetry_equiv_pos_as_xyz
1 x,y,z
2 -x,-y,-z
_cell_length_a                   7.2077(11)
_cell_length_b                   17.214(3)
_cell_length_c                   18.628(3)
_cell_angle_alpha                116.909(8)
_cell_angle_beta                 91.456(9)
_cell_angle_gamma                101.060(9)
_cell_volume                     2006.01
_exptl_crystal_colour            red
_exptl_crystal_description       block
_cell_formula_units_Z            2
loop_
_atom_site_label
_atom_site_type_symbol
_atom_site_fract_x
_atom_site_fract_y
_atom_site_fract_z
O1 O 0.7822(3) 0.17546(14) 0.72400(14)
N1 N 0.4752(4) 0.14943(17) 0.76383(16)
N2 N 0.9569(4) 0.2981(2) 0.86959(18)
O2 O -0.0317(4) 0.26475(19) 0.46338(16)
O3 O 0.6255(5) 0.06330(19) 0.43075(17)
N3 N 0.7258(4) 0.34246(18) 0.80439(17)
H1 H 0.7270 0.3082 0.8265
N4 N 0.7355(4) 0.13615(18) 0.83238(17)
C1 C 0.4295(5) 0.2549(2) 0.70831(19)
C2 C 0.3035(5) 0.2581(2) 0.6451(2)
C3 C 0.5897(5) 0.3271(2) 0.7453(2)
C4 C 0.3739(5) 0.1803(2) 0.72038(19)
C5 C 0.3581(5) 0.0771(2) 0.7688(2)
C6 C 0.3297(5) 0.2112(2) 0.5625(2)
C7 C 1.0355(5) 0.2422(2) 0.8867(2)
C8 C 1.0393(5) 0.4394(2) 0.8713(2)
C9 C 1.1718(5) 0.5251(2) 0.8915(2)
C10 C 0.8618(5) 0.4192(2) 0.8249(2)
C11 C 0.1888(5) 0.1235(2) 0.6987(2)
H2 H 0.0883 0.1266 0.6684
C12 C 0.8013(5) 0.4577(2) 0.7782(2)
H3 H 0.8624 0.5116 0.7804
C13 C 0.6240(5) 0.0645(2) 0.8392(2)
C14 C 0.6388(5) 0.4024(2) 0.7297(2)
H4 H 0.5703 0.4117 0.6925
C15 C 1.4125(6) 0.6869(2) 0.9221(2)
C16 C 1.0895(5) 0.3756(2) 0.8907(2)
C17 C 0.4724(5) 0.1603(2) 0.5387(2)
H5 H 0.5519 0.1590 0.5780
C18 C 0.9187(5) 0.1597(2) 0.8719(2)
C19 C 0.1790(5) 0.0641(2) 0.7283(2)
H6 H 0.0707 0.0215 0.7226
C20 C 0.2149(5) 0.2144(2) 0.5018(2)
C21 C 0.3122(5) -0.0450(2) 0.8071(2)
C22 C 0.4329(5) 0.0335(2) 0.8053(2)
C23 C 0.9265(6) 0.0978(2) 0.9002(2)
H7 H 1.0332 0.0956 0.9277
C24 C 0.7489(6) 0.0400(2) 0.8803(2)
H8 H 0.7173 -0.0074 0.8923
C25 C 1.2590(5) 0.3682(3) 0.9251(2)
H9 H 1.3723 0.4117 0.9462
C26 C 0.1658(5) 0.3048(2) 0.6643(2)
H10 H 0.1471 0.3347 0.7185
C27 C 0.2106(5) -0.1165(2) 0.7357(2)
H11 H 0.2214 -0.1150 0.6867
C28 C 0.0759(6) 0.2656(2) 0.5262(2)
C29 C 0.0506(5) 0.3101(2) 0.6061(2)
H12 H -0.0421 0.3434 0.6215
C30 C 1.1145(6) 0.6051(3) 0.9290(2)
H13 H 0.9925 0.6049 0.9441
C31 C 0.4930(6) 0.1137(3) 0.4588(3)
C32 C 0.0768(6) -0.1914(3) 0.8091(3)
C33 C 1.2342(6) 0.6844(2) 0.9442(2)
H14 H 1.1929 0.7373 0.9700
C34 C 1.3555(6) 0.5287(2) 0.8725(2)
H15 H 1.3994 0.4763 0.8497
C35 C 1.4775(5) 0.6087(3) 0.8862(2)
H16 H 1.6000 0.6096 0.8717
C36 C 0.2897(6) -0.0479(2) 0.8790(2)
H17 H 0.3547 -0.0002 0.9273
C37 C 1.2259(5) 0.2867(3) 0.9218(2)
H18 H 1.3134 0.2638 0.9395
C38 C 0.1718(6) -0.1206(3) 0.8808(3)
H19 H 0.1569 -0.1216 0.9299
C39 C 0.0951(6) -0.1890(3) 0.7366(3)
H20 H 0.0291 -0.2366 0.6885
N5 N 1.6322(6) 0.8377(2) 0.9500(3)
C40 C 0.6763(6) 0.1538(3) 0.7658(3)
C41 C 0.2420(6) 0.1651(3) 0.4201(2)
H21 H 0.1665 0.1666 0.3797
C42 C 0.7544(6) 0.0620(3) 0.4891(3)
H22 H 0.8418 0.0259 0.4619
H23 H 0.6843 0.0373 0.5201
H24 H 0.8241 0.1219 0.5249
C43 C 0.3733(7) 0.1163(3) 0.3992(3)
H25 H 0.3861 0.0837 0.3447
C44 C 1.5357(6) 0.7708(3) 0.9372(3)
C45 C -0.0427(7) -0.2678(3) 0.8099(3)
N6 N -0.1391(6) -0.3284(3) 0.8097(3)
C46 C -0.1719(7) 0.3171(3) 0.4845(3)
H26 H -0.2417 0.3086 0.4359
H27 H -0.1104 0.3791 0.5164
H28 H -0.2580 0.2987 0.5153
loop_
_geom_bond_atom_site_label_1
_geom_bond_atom_site_label_2
_geom_bond_site_symmetry_1
_geom_bond_site_symmetry_2
O1 C40 1_555 1_555
N1 C4 1_555 1_555
N2 C7 1_555 1_555
O2 C28 1_555 1_555
O3 C31 1_555 1_555
N3 H1 1_555 1_555
N4 C13 1_555 1_555
C1 C2 1_555 1_555
C2 C6 1_555 1_555
C3 N3 1_555 1_555
C4 C1 1_555 1_555
C5 N1 1_555 1_555
C6 C17 1_555 1_555
C7 C18 1_555 1_555
C8 C9 1_555 1_555
C9 C30 1_555 1_555
C10 N3 1_555 1_555
C11 C4 1_555 1_555
H2 C11 1_555 1_555
C12 C10 1_555 1_555
H3 C12 1_555 1_555
C13 C22 1_555 1_555
C14 C3 1_555 1_555
H4 C14 1_555 1_555
C15 C33 1_555 1_555
C16 N2 1_555 1_555
C17 H5 1_555 1_555
C18 N4 1_555 1_555
C19 C5 1_555 1_555
H6 C19 1_555 1_555
C20 C6 1_555 1_555
C21 C22 1_555 1_555
C22 C5 1_555 1_555
C23 C18 1_555 1_555
H7 C23 1_555 1_555
C24 C13 1_555 1_555
H8 C24 1_555 1_555
C25 C16 1_555 1_555
H9 C25 1_555 1_555
C26 C2 1_555 1_555
H10 C26 1_555 1_555
C27 C21 1_555 1_555
H11 C27 1_555 1_555
C28 C20 1_555 1_555
C29 C26 1_555 1_555
H12 C29 1_555 1_555
C30 H13 1_555 1_555
C31 C17 1_555 1_555
C32 C38 1_555 1_555
C33 C30 1_555 1_555
H14 C33 1_555 1_555
C34 C9 1_555 1_555
H15 C34 1_555 1_555
C35 C15 1_555 1_555
H16 C35 1_555 1_555
C36 C21 1_555 1_555
H17 C36 1_555 1_555
C37 C7 1_555 1_555
H18 C37 1_555 1_555
C38 C36 1_555 1_555
H19 C38 1_555 1_555
C39 C27 1_555 1_555
H20 C39 1_555 1_555
N5 C44 1_555 1_555
C40 N1 1_555 1_555
C41 C20 1_555 1_555
H21 C41 1_555 1_555
C42 O3 1_555 1_555
H22 C42 1_555 1_555
H23 C42 1_555 1_555
H24 C42 1_555 1_555
C43 C31 1_555 1_555
H25 C43 1_555 1_555
C44 C15 1_555 1_555
C45 C32 1_555 1_555
N6 C45 1_555 1_555
C46 O2 1_555 1_555
H26 C46 1_555 1_555
H27 C46 1_555 1_555
H28 C46 1_555 1_555
N4 C40 1_555 1_555
C1 C3 1_555 1_555
C8 C10 1_555 1_555
C8 C16 1_555 1_555
C11 C19 1_555 1_555
C12 C14 1_555 1_555
C23 C24 1_555 1_555
C25 C37 1_555 1_555
C28 C29 1_555 1_555
C32 C39 1_555 1_555
C34 C35 1_555 1_555
C41 C43 1_555 1_555

#END
