
#######################################################################
#
#                 Cambridge Crystallographic Data Centre
#                                CCDC 
#
#######################################################################
#
# If this CIF has been generated from an entry in the Cambridge 
# Structural Database, then it will include bibliographic, chemical, 
# crystal, experimental, refinement or atomic coordinate data resulting 
# from the CCDC's data processing and validation procedures.
#
#######################################################################

data_ZENNOV01
_chemical_formula_moiety         'C21 H15 N1'
_chemical_name_systematic        2,4-Diphenylquinoline
_symmetry_cell_setting           monoclinic
_symmetry_space_group_name_H-M   'P 21/n'
_symmetry_Int_Tables_number      14
_space_group_name_Hall           '-P 2yn'
loop_
_symmetry_equiv_pos_site_id
_symmetry_equiv_pos_as_xyz
1 x,y,z
2 1/2-x,1/2+y,1/2-z
3 -x,-y,-z
4 1/2+x,1/2-y,1/2+z
_cell_length_a                   10.632(11)
_cell_length_b                   8.441(9)
_cell_length_c                   17.204(18)
_cell_angle_alpha                90
_cell_angle_beta                 95.75(2)
_cell_angle_gamma                90
_cell_volume                     1536.2
_exptl_crystal_colour            colorless
_exptl_crystal_description       block
_cell_formula_units_Z            4
loop_
_atom_site_label
_atom_site_type_symbol
_atom_site_fract_x
_atom_site_fract_y
_atom_site_fract_z
C1 C 0.88872(12) 0.77831(15) 0.03066(7)
C2 C 0.83999(13) 0.66178(17) -0.02356(8)
H1 H 0.8917 0.5795 -0.0370
C3 C 0.71707(14) 0.66952(19) -0.05631(9)
H2 H 0.6866 0.5929 -0.0922
C4 C 0.63662(14) 0.79191(19) -0.03622(9)
H3 H 0.5533 0.7950 -0.0585
C5 C 0.68017(13) 0.90636(17) 0.01587(8)
H4 H 0.6261 0.9867 0.0287
C6 C 0.80768(11) 0.90399(15) 0.05073(7)
C7 C 0.86176(11) 1.02445(15) 0.10239(7)
C8 C 0.98868(12) 1.01115(16) 0.12940(7)
H5 H 1.0270 1.0906 0.1609
C9 C 1.06148(11) 0.87775(15) 0.10972(7)
C10 C 1.19681(12) 0.85894(15) 0.14338(7)
C11 C 1.24354(14) 0.93290(19) 0.21293(9)
H6 H 1.1902 0.9962 0.2393
C12 C 1.36936(15) 0.9130(2) 0.24331(10)
H7 H 1.3988 0.9623 0.2899
C13 C 1.45042(14) 0.82044(19) 0.20455(10)
H8 H 1.5341 0.8075 0.2250
C14 C 1.40646(13) 0.74743(19) 0.13541(10)
H9 H 1.4609 0.6860 0.1089
C15 C 1.28023(13) 0.76552(17) 0.10513(9)
H10 H 1.2512 0.7146 0.0588
C16 C 0.78480(12) 1.16006(15) 0.12845(7)
C17 C 0.68277(13) 1.13212(18) 0.17203(8)
H11 H 0.6603 1.0284 0.1824
C18 C 0.61432(15) 1.2563(2) 0.20017(9)
H12 H 0.5478 1.2355 0.2299
C19 C 0.64549(16) 1.4098(2) 0.18390(9)
H13 H 0.5997 1.4933 0.2024
C20 C 0.74484(18) 1.44028(19) 0.14007(9)
H14 H 0.7650 1.5444 0.1287
C21 C 0.81521(15) 1.31626(17) 0.11267(8)
H15 H 0.8826 1.3381 0.0838
N1 N 1.01354(10) 0.76414(13) 0.06191(6)
loop_
_geom_bond_atom_site_label_1
_geom_bond_atom_site_label_2
_geom_bond_site_symmetry_1
_geom_bond_site_symmetry_2
C1 C2 1_555 1_555
C2 H1 1_555 1_555
C3 C2 1_555 1_555
H2 C3 1_555 1_555
C4 C3 1_555 1_555
H3 C4 1_555 1_555
C5 C4 1_555 1_555
H4 C5 1_555 1_555
C6 C1 1_555 1_555
C7 C6 1_555 1_555
C8 C7 1_555 1_555
H5 C8 1_555 1_555
C9 C8 1_555 1_555
C10 C9 1_555 1_555
C11 C10 1_555 1_555
H6 C11 1_555 1_555
C12 C11 1_555 1_555
H7 C12 1_555 1_555
C13 C12 1_555 1_555
H8 C13 1_555 1_555
C14 C13 1_555 1_555
H9 C14 1_555 1_555
C15 C10 1_555 1_555
H10 C15 1_555 1_555
C16 C7 1_555 1_555
C17 C16 1_555 1_555
H11 C17 1_555 1_555
C18 C17 1_555 1_555
H12 C18 1_555 1_555
C19 C18 1_555 1_555
H13 C19 1_555 1_555
C20 C19 1_555 1_555
H14 C20 1_555 1_555
C21 C16 1_555 1_555
H15 C21 1_555 1_555
N1 C1 1_555 1_555
C5 C6 1_555 1_555
C9 N1 1_555 1_555
C14 C15 1_555 1_555
C20 C21 1_555 1_555

#END
