
#######################################################################
#
#                 Cambridge Crystallographic Data Centre
#                                CCDC 
#
#######################################################################
#
# If this CIF has been generated from an entry in the Cambridge 
# Structural Database, then it will include bibliographic, chemical, 
# crystal, experimental, refinement or atomic coordinate data resulting 
# from the CCDC's data processing and validation procedures.
#
#######################################################################

data_ZEQSOG
_chemical_formula_moiety         'C16 H21 N1 O3'
_chemical_name_systematic        N-(but-2-enoyl)-N-t-butyl-4-methoxybenzamide
_symmetry_cell_setting           monoclinic
_symmetry_space_group_name_H-M   'P 21/n'
_symmetry_Int_Tables_number      14
_space_group_name_Hall           '-P 2yn'
loop_
_symmetry_equiv_pos_site_id
_symmetry_equiv_pos_as_xyz
1 x,y,z
2 1/2-x,1/2+y,1/2-z
3 -x,-y,-z
4 1/2+x,1/2-y,1/2+z
_cell_length_a                   21.5099(16)
_cell_length_b                   7.4777(4)
_cell_length_c                   21.523(2)
_cell_angle_alpha                90
_cell_angle_beta                 116.701(11)
_cell_angle_gamma                90
_cell_volume                     3092.7
_exptl_crystal_colour            colorless
_exptl_crystal_description       block
_cell_formula_units_Z            8
loop_
_atom_site_label
_atom_site_type_symbol
_atom_site_fract_x
_atom_site_fract_y
_atom_site_fract_z
O1 O 0.73039(14) 0.1633(4) 0.24782(15)
O2 O 0.42124(14) 0.3927(4) 0.16673(15)
O3 O 0.36152(15) 0.6863(4) -0.00879(14)
N1 N 0.44195(14) 0.5970(4) 0.09836(15)
C1 C 0.56373(19) 0.2851(5) 0.23523(18)
H1 H 0.5391 0.2681 0.2609
C2 C 0.62923(19) 0.2181(5) 0.25914(19)
H2 H 0.6498 0.1598 0.3018
C3 C 0.66554(18) 0.2367(5) 0.21966(18)
C4 C 0.63514(19) 0.3230(5) 0.15669(19)
H3 H 0.6585 0.3321 0.1295
C5 C 0.56973(18) 0.3961(5) 0.13404(18)
H4 H 0.5500 0.4580 0.0921
C6 C 0.53288(17) 0.3796(5) 0.17234(17)
C7 C 0.46189(19) 0.4519(5) 0.14791(18)
C8 C 0.39229(18) 0.5649(6) 0.0313(2)
C9 C 0.38031(19) 0.3756(6) 0.0090(2)
H5 H 0.4091 0.2879 0.0386
C10 C 0.3302(2) 0.3281(6) -0.0514(2)
H6 H 0.3018 0.4192 -0.0792
C11 C 0.3142(2) 0.1461(6) -0.0798(2)
H7 H 0.3188 0.1400 -0.1221
H8 H 0.2674 0.1159 -0.0892
H9 H 0.3459 0.0632 -0.0466
C12 C 0.7739(2) 0.2038(6) 0.2152(3)
H10 H 0.7513 0.1657 0.1675
H11 H 0.8175 0.1425 0.2391
H12 H 0.7820 0.3304 0.2171
C13 C 0.46118(19) 0.7836(5) 0.1258(2)
C14 C 0.3976(2) 0.8829(6) 0.1212(3)
H13 H 0.3648 0.8982 0.0732
H14 H 0.4114 0.9980 0.1428
H15 H 0.3764 0.8154 0.1445
C15 C 0.4926(3) 0.8807(6) 0.0838(3)
H16 H 0.5341 0.8201 0.0895
H17 H 0.5036 1.0016 0.1001
H18 H 0.4595 0.8811 0.0355
C16 C 0.5150(2) 0.7773(7) 0.2031(3)
H19 H 0.4966 0.7087 0.2288
H20 H 0.5248 0.8967 0.2214
H21 H 0.5571 0.7225 0.2073
O4 O 0.25252(15) -0.3363(4) 0.26601(15)
O5 O 0.32972(14) -0.1177(4) 0.57530(14)
O6 O 0.50723(13) 0.1727(4) 0.63749(16)
N2 N 0.39994(14) 0.0861(4) 0.55796(15)
C17 C 0.36564(17) -0.1092(5) 0.42817(19)
H22 H 0.4077 -0.0477 0.4484
C18 C 0.34351(19) -0.1810(5) 0.36290(19)
H23 H 0.3715 -0.1732 0.3403
C19 C 0.27985(18) -0.2642(5) 0.33121(19)
C20 C 0.23985(19) -0.2817(5) 0.3665(2)
H24 H 0.1966 -0.3372 0.3448
C21 C 0.26314(17) -0.2187(5) 0.43232(19)
H25 H 0.2368 -0.2367 0.4562
C22 C 0.32654(16) -0.1267(5) 0.46458(17)
C23 C 0.34988(18) -0.0581(5) 0.53598(19)
C24 C 0.46667(18) 0.0523(6) 0.60644(19)
C25 C 0.48934(19) -0.1361(5) 0.6171(2)
H26 H 0.4586 -0.2231 0.5891
C26 C 0.5510(2) -0.1865(6) 0.6645(2)
H27 H 0.5796 -0.0970 0.6932
C27 C 0.5800(2) -0.3685(6) 0.6773(2)
H28 H 0.5469 -0.4492 0.6442
H29 H 0.5897 -0.4050 0.7235
H30 H 0.6222 -0.3700 0.6724
C28 C 0.2850(2) -0.2942(6) 0.2229(2)
H31 H 0.2602 -0.3514 0.1785
H32 H 0.3323 -0.3359 0.2446
H33 H 0.2845 -0.1671 0.2166
C29 C 0.3730(2) 0.2744(5) 0.5399(2)
C30 C 0.2960(2) 0.2701(6) 0.4873(3)
H34 H 0.2910 0.2129 0.4453
H35 H 0.2785 0.3901 0.4770
H36 H 0.2703 0.2045 0.5065
C31 C 0.3792(2) 0.3705(7) 0.6047(2)
H37 H 0.3566 0.3014 0.6262
H38 H 0.3575 0.4858 0.5920
H39 H 0.4275 0.3850 0.6367
C32 C 0.4139(3) 0.3722(6) 0.5078(3)
H40 H 0.4622 0.3772 0.5409
H41 H 0.3962 0.4915 0.4953
H42 H 0.4092 0.3094 0.4670
loop_
_geom_bond_atom_site_label_1
_geom_bond_atom_site_label_2
_geom_bond_site_symmetry_1
_geom_bond_site_symmetry_2
O1 C3 1_555 1_555
O2 C7 1_555 1_555
O3 C8 1_555 1_555
N1 C7 1_555 1_555
C1 H1 1_555 1_555
C2 C1 1_555 1_555
H2 C2 1_555 1_555
C3 C2 1_555 1_555
C4 C3 1_555 1_555
H3 C4 1_555 1_555
C5 C4 1_555 1_555
H4 C5 1_555 1_555
C6 C1 1_555 1_555
C7 C6 1_555 1_555
C8 N1 1_555 1_555
C9 C8 1_555 1_555
H5 C9 1_555 1_555
C10 C9 1_555 1_555
H6 C10 1_555 1_555
C11 C10 1_555 1_555
H7 C11 1_555 1_555
H8 C11 1_555 1_555
H9 C11 1_555 1_555
C12 O1 1_555 1_555
H10 C12 1_555 1_555
H11 C12 1_555 1_555
H12 C12 1_555 1_555
C13 N1 1_555 1_555
C14 C13 1_555 1_555
H13 C14 1_555 1_555
H14 C14 1_555 1_555
H15 C14 1_555 1_555
C15 C13 1_555 1_555
H16 C15 1_555 1_555
H17 C15 1_555 1_555
H18 C15 1_555 1_555
C16 C13 1_555 1_555
H19 C16 1_555 1_555
H20 C16 1_555 1_555
H21 C16 1_555 1_555
O4 C19 1_555 1_555
O5 C23 1_555 1_555
O6 C24 1_555 1_555
N2 C23 1_555 1_555
C17 H22 1_555 1_555
C18 C17 1_555 1_555
H23 C18 1_555 1_555
C19 C18 1_555 1_555
C20 C19 1_555 1_555
H24 C20 1_555 1_555
C21 C20 1_555 1_555
H25 C21 1_555 1_555
C22 C17 1_555 1_555
C23 C22 1_555 1_555
C24 N2 1_555 1_555
C25 C24 1_555 1_555
H26 C25 1_555 1_555
C26 C25 1_555 1_555
H27 C26 1_555 1_555
C27 C26 1_555 1_555
H28 C27 1_555 1_555
H29 C27 1_555 1_555
H30 C27 1_555 1_555
C28 O4 1_555 1_555
H31 C28 1_555 1_555
H32 C28 1_555 1_555
H33 C28 1_555 1_555
C29 N2 1_555 1_555
C30 C29 1_555 1_555
H34 C30 1_555 1_555
H35 C30 1_555 1_555
H36 C30 1_555 1_555
C31 C29 1_555 1_555
H37 C31 1_555 1_555
H38 C31 1_555 1_555
H39 C31 1_555 1_555
C32 C29 1_555 1_555
H40 C32 1_555 1_555
H41 C32 1_555 1_555
H42 C32 1_555 1_555
C5 C6 1_555 1_555
C21 C22 1_555 1_555

#END
