
#######################################################################
#
#                 Cambridge Crystallographic Data Centre
#                                CCDC 
#
#######################################################################
#
# If this CIF has been generated from an entry in the Cambridge 
# Structural Database, then it will include bibliographic, chemical, 
# crystal, experimental, refinement or atomic coordinate data resulting 
# from the CCDC's data processing and validation procedures.
#
#######################################################################

data_ZERQEV
_chemical_formula_moiety         'C52 H40 O4'
_chemical_name_systematic        
3,3'-[hexahelicene-4,13-diylbis(ethyne-2,1-diyl)]bis(5-t-butyl-6-hydroxybenzaldehyde)
_symmetry_cell_setting           orthorhombic
_symmetry_space_group_name_H-M   'P 21 21 21'
_symmetry_Int_Tables_number      19
_space_group_name_Hall           'P 2ac 2ab'
loop_
_symmetry_equiv_pos_site_id
_symmetry_equiv_pos_as_xyz
1 x,y,z
2 1/2-x,-y,1/2+z
3 -x,1/2+y,1/2-z
4 1/2+x,1/2-y,-z
_cell_length_a                   6.5343(3)
_cell_length_b                   17.9861(7)
_cell_length_c                   32.5230(14)
_cell_angle_alpha                90
_cell_angle_beta                 90
_cell_angle_gamma                90
_cell_volume                     3822.32
_exptl_crystal_colour            'light yellow'
_exptl_crystal_description       octahedral
_cell_formula_units_Z            4
loop_
_atom_site_label
_atom_site_type_symbol
_atom_site_fract_x
_atom_site_fract_y
_atom_site_fract_z
O1 O 1.6909(3) 0.67780(10) 0.61473(6)
H1 H 1.7553 0.6429 0.6260
O2 O 1.7608(3) 0.54338(12) 0.64216(6)
O3 O -0.7256(3) 0.70170(11) 0.21050(7)
H2 H -0.7801 0.6701 0.1950
O4 O -0.7775(4) 0.57709(14) 0.17258(8)
C1 C 1.4747(5) 0.82145(14) 0.61832(9)
H3 H 1.5891 0.7951 0.6313
H4 H 1.5124 0.8736 0.6140
H5 H 1.3543 0.8188 0.6362
C2 C 1.4255(4) 0.78545(13) 0.57704(8)
C3 C 1.2478(6) 0.82896(15) 0.55883(11)
H6 H 1.2106 0.8077 0.5321
H7 H 1.1300 0.8262 0.5774
H8 H 1.2881 0.8810 0.5552
C4 C 1.6090(6) 0.79155(17) 0.54797(11)
H9 H 1.7246 0.7637 0.5594
H10 H 1.5724 0.7710 0.5211
H11 H 1.6474 0.8439 0.5449
C5 C 1.3693(4) 0.70256(13) 0.58274(7)
C6 C 1.5065(4) 0.65289(13) 0.60195(7)
C7 C 1.4547(4) 0.57739(13) 0.60723(7)
C8 C 1.2704(4) 0.55046(13) 0.59194(8)
H12 H 1.2356 0.4997 0.5959
C9 C 1.1367(4) 0.59681(13) 0.57099(7)
C10 C 1.1880(4) 0.67283(13) 0.56797(8)
H13 H 1.0930 0.7054 0.5551
C11 C 1.5957(5) 0.52624(15) 0.62719(9)
H14 H 1.5564 0.4755 0.6287
C12 C 0.9610(4) 0.56686(13) 0.55034(8)
C13 C 0.8278(4) 0.53775(13) 0.53084(8)
C14 C 0.6742(4) 0.50149(13) 0.50584(7)
C15 C 0.7185(4) 0.43087(12) 0.48775(7)
C16 C 0.9037(4) 0.39297(13) 0.49711(7)
H15 H 1.0039 0.4161 0.5140
C17 C 0.9377(4) 0.32352(14) 0.48194(7)
H16 H 1.0576 0.2975 0.4901
C18 C 0.8003(4) 0.28903(12) 0.45451(7)
C19 C 0.8337(4) 0.21343(13) 0.44291(8)
H17 H 0.9567 0.1890 0.4506
C20 C 0.6914(4) 0.17678(13) 0.42108(8)
H18 H 0.7063 0.1248 0.4167
C21 C 0.5184(4) 0.21441(12) 0.40437(7)
C22 C 0.3629(4) 0.17372(13) 0.38314(8)
H19 H 0.3727 0.1211 0.3812
C23 C 0.2024(4) 0.20907(13) 0.36584(8)
H20 H 0.0906 0.1811 0.3554
C24 C 0.1999(4) 0.28789(13) 0.36319(8)
C25 C 0.0417(4) 0.32413(14) 0.34073(8)
H21 H -0.0733 0.2961 0.3318
C26 C 0.0513(4) 0.39777(14) 0.33174(8)
H22 H -0.0603 0.4214 0.3183
C27 C 0.2291(4) 0.43979(12) 0.34243(7)
C28 C 0.2572(4) 0.51373(13) 0.32719(7)
C29 C 0.4367(4) 0.55144(13) 0.33508(8)
H23 H 0.4530 0.6012 0.3258
C30 C 0.5942(4) 0.51670(13) 0.35663(7)
H24 H 0.7195 0.5423 0.3610
C31 C 0.5707(3) 0.44586(12) 0.37170(7)
H25 H 0.6807 0.4231 0.3860
C32 C 0.3856(4) 0.40619(12) 0.36629(7)
C33 C 0.3599(3) 0.33007(12) 0.38078(7)
C34 C 0.5005(3) 0.29277(12) 0.40861(7)
C35 C 0.6251(4) 0.32755(12) 0.44034(7)
C36 C 0.5733(3) 0.39735(11) 0.46078(7)
C37 C 0.3798(4) 0.43177(12) 0.45711(7)
H26 H 0.2758 0.4080 0.4415
C38 C 0.3385(4) 0.49887(13) 0.47564(7)
H27 H 0.2070 0.5207 0.4726
C39 C 0.4873(4) 0.53522(13) 0.49882(7)
H28 H 0.4604 0.5832 0.5098
C40 C 0.1009(4) 0.54787(14) 0.30209(8)
C41 C -0.0304(4) 0.57621(14) 0.28222(8)
C42 C -0.2035(4) 0.60872(13) 0.26159(8)
C43 C -0.3206(4) 0.56825(14) 0.23453(8)
H29 H -0.2814 0.5190 0.2274
C44 C -0.4977(4) 0.59942(14) 0.21741(8)
C45 C -0.5554(4) 0.67229(14) 0.22772(8)
C46 C -0.4403(4) 0.71497(13) 0.25552(7)
C47 C -0.2653(4) 0.68180(14) 0.27124(8)
H30 H -0.1824 0.7099 0.2895
C48 C -0.6207(5) 0.55558(17) 0.18943(9)
H31 H -0.5763 0.5064 0.1837
C49 C -0.5094(5) 0.79331(14) 0.26879(8)
C50 C -0.7319(6) 0.7912(2) 0.28440(11)
H32 H -0.7413 0.7576 0.3081
H33 H -0.7741 0.8413 0.2927
H34 H -0.8218 0.7733 0.2624
C51 C -0.5011(6) 0.84589(15) 0.23215(10)
H35 H -0.5878 0.8265 0.2100
H36 H -0.5505 0.8951 0.2405
H37 H -0.3597 0.8499 0.2224
C52 C -0.3737(6) 0.82411(18) 0.30304(11)
H38 H -0.3782 0.7905 0.3268
H39 H -0.2325 0.8282 0.2931
H40 H -0.4234 0.8734 0.3112
loop_
_geom_bond_atom_site_label_1
_geom_bond_atom_site_label_2
_geom_bond_site_symmetry_1
_geom_bond_site_symmetry_2
O1 H1 1_555 1_555
O2 C11 1_555 1_555
O3 H2 1_555 1_555
O4 C48 1_555 1_555
C1 H3 1_555 1_555
H4 C1 1_555 1_555
H5 C1 1_555 1_555
C2 C1 1_555 1_555
C3 C2 1_555 1_555
H6 C3 1_555 1_555
H7 C3 1_555 1_555
H8 C3 1_555 1_555
C4 C2 1_555 1_555
H9 C4 1_555 1_555
H10 C4 1_555 1_555
H11 C4 1_555 1_555
C5 C2 1_555 1_555
C6 O1 1_555 1_555
C7 C6 1_555 1_555
C8 C7 1_555 1_555
H12 C8 1_555 1_555
C9 C8 1_555 1_555
C10 C5 1_555 1_555
H13 C10 1_555 1_555
C11 C7 1_555 1_555
H14 C11 1_555 1_555
C12 C9 1_555 1_555
C13 C12 1_555 1_555
C14 C13 1_555 1_555
C15 C14 1_555 1_555
C16 C15 1_555 1_555
H15 C16 1_555 1_555
C17 C16 1_555 1_555
H16 C17 1_555 1_555
C18 C17 1_555 1_555
C19 C18 1_555 1_555
H17 C19 1_555 1_555
C20 C19 1_555 1_555
H18 C20 1_555 1_555
C21 C20 1_555 1_555
C22 C21 1_555 1_555
H19 C22 1_555 1_555
C23 C22 1_555 1_555
H20 C23 1_555 1_555
C24 C23 1_555 1_555
C25 C24 1_555 1_555
H21 C25 1_555 1_555
C26 C25 1_555 1_555
H22 C26 1_555 1_555
C27 C26 1_555 1_555
C28 C27 1_555 1_555
C29 C28 1_555 1_555
H23 C29 1_555 1_555
C30 C29 1_555 1_555
H24 C30 1_555 1_555
C31 C30 1_555 1_555
H25 C31 1_555 1_555
C32 C27 1_555 1_555
C33 C24 1_555 1_555
C34 C21 1_555 1_555
C35 C18 1_555 1_555
C36 C15 1_555 1_555
C37 C36 1_555 1_555
H26 C37 1_555 1_555
C38 C37 1_555 1_555
H27 C38 1_555 1_555
C39 C14 1_555 1_555
H28 C39 1_555 1_555
C40 C28 1_555 1_555
C41 C40 1_555 1_555
C42 C41 1_555 1_555
C43 C42 1_555 1_555
H29 C43 1_555 1_555
C44 C43 1_555 1_555
C45 O3 1_555 1_555
C46 C45 1_555 1_555
C47 C42 1_555 1_555
H30 C47 1_555 1_555
C48 C44 1_555 1_555
H31 C48 1_555 1_555
C49 C46 1_555 1_555
C50 C49 1_555 1_555
H32 C50 1_555 1_555
H33 C50 1_555 1_555
H34 C50 1_555 1_555
C51 C49 1_555 1_555
H35 C51 1_555 1_555
H36 C51 1_555 1_555
H37 C51 1_555 1_555
C52 C49 1_555 1_555
H38 C52 1_555 1_555
H39 C52 1_555 1_555
H40 C52 1_555 1_555
C5 C6 1_555 1_555
C9 C10 1_555 1_555
C31 C32 1_555 1_555
C32 C33 1_555 1_555
C33 C34 1_555 1_555
C34 C35 1_555 1_555
C35 C36 1_555 1_555
C38 C39 1_555 1_555
C44 C45 1_555 1_555
C46 C47 1_555 1_555

#END
