
#######################################################################
#
#                 Cambridge Crystallographic Data Centre
#                                CCDC 
#
#######################################################################
#
# If this CIF has been generated from an entry in the Cambridge 
# Structural Database, then it will include bibliographic, chemical, 
# crystal, experimental, refinement or atomic coordinate data resulting 
# from the CCDC's data processing and validation procedures.
#
#######################################################################

data_ZERRET01
_chemical_formula_moiety         'C5 H6 S5'
_chemical_name_systematic        4,5-bis(methylthiolato)-1,2-dithiole-3-thione
_symmetry_cell_setting           triclinic
_symmetry_space_group_name_H-M   'P -1'
_symmetry_Int_Tables_number      2
_space_group_name_Hall           '-P 1'
loop_
_symmetry_equiv_pos_site_id
_symmetry_equiv_pos_as_xyz
1 x,y,z
2 -x,-y,-z
_cell_length_a                   7.2510(2)
_cell_length_b                   7.7188(2)
_cell_length_c                   8.5948(3)
_cell_angle_alpha                90.3999(17)
_cell_angle_beta                 113.3887(15)
_cell_angle_gamma                95.3346(18)
_cell_volume                     439.097
_exptl_crystal_colour            orange
_exptl_crystal_description       block
_chemical_melting_point          '92-93 deg.C'
_cell_formula_units_Z            2
loop_
_atom_site_label
_atom_site_type_symbol
_atom_site_fract_x
_atom_site_fract_y
_atom_site_fract_z
S1 S 0.62090(5) 0.80227(5) 0.66463(5)
S2 S 0.78761(5) 0.88015(5) 0.52485(5)
S3 S 0.67045(6) 0.82612(5) 0.16162(5)
S4 S 0.23143(5) 0.61274(5) 0.15250(4)
S5 S 0.20458(5) 0.61579(5) 0.51492(4)
C1 C 0.6114(2) 0.79534(19) 0.32735(19)
C2 C 0.4310(2) 0.71019(17) 0.33486(18)
C3 C 0.4175(2) 0.70731(18) 0.49049(18)
C4 C 0.1165(2) 0.8053(2) 0.05591(19)
H1 H 0.0701 0.8643 0.1330
H2 H 0.0012 0.7712 -0.0512
H3 H 0.2161 0.8845 0.0337
C5 C 0.2721(2) 0.6510(2) 0.7399(2)
H4 H 0.3935 0.5941 0.8036
H5 H 0.1606 0.6018 0.7684
H6 H 0.2988 0.7763 0.7696
loop_
_geom_bond_atom_site_label_1
_geom_bond_atom_site_label_2
_geom_bond_site_symmetry_1
_geom_bond_site_symmetry_2
S1 S2 1_555 1_555
S2 C1 1_555 1_555
S3 C1 1_555 1_555
S4 C2 1_555 1_555
S5 C3 1_555 1_555
C1 C2 1_555 1_555
C2 C3 1_555 1_555
C3 S1 1_555 1_555
C4 S4 1_555 1_555
H1 C4 1_555 1_555
H2 C4 1_555 1_555
H3 C4 1_555 1_555
C5 S5 1_555 1_555
H4 C5 1_555 1_555
H5 C5 1_555 1_555
H6 C5 1_555 1_555

#END
