
#######################################################################
#
#                 Cambridge Crystallographic Data Centre
#                                CCDC 
#
#######################################################################
#
# If this CIF has been generated from an entry in the Cambridge 
# Structural Database, then it will include bibliographic, chemical, 
# crystal, experimental, refinement or atomic coordinate data resulting 
# from the CCDC's data processing and validation procedures.
#
#######################################################################

data_ZETMUJ
_chemical_formula_moiety         'C36 H50 N14 O4'
_chemical_name_systematic        
'di-t-butyl 11,25-bis(diethylamino)-2,8,10,12,14,15,21,22,24,26,27,29-dodecaazapentacyclo[21.3.1.1^3,7^.1^9,13^.1^16,20^]triaconta-1(27),3(30),4,6,9(29),10,12,16(28),17,19,23,25-dodecaene-15,21-dicarboxylate unknown solvate'
_symmetry_cell_setting           monoclinic
_symmetry_space_group_name_H-M   'P 21/n'
_symmetry_Int_Tables_number      14
_space_group_name_Hall           '-P 2yn'
loop_
_symmetry_equiv_pos_site_id
_symmetry_equiv_pos_as_xyz
1 x,y,z
2 1/2-x,1/2+y,1/2-z
3 -x,-y,-z
4 1/2+x,1/2-y,1/2+z
_cell_length_a                   12.3134(4)
_cell_length_b                   17.4067(5)
_cell_length_c                   21.6601(7)
_cell_angle_alpha                90
_cell_angle_beta                 105.877(3)
_cell_angle_gamma                90
_cell_volume                     4465.42
_exptl_crystal_colour            colorless
_exptl_crystal_description       Plate
_cell_formula_units_Z            4
loop_
_atom_site_label
_atom_site_type_symbol
_atom_site_fract_x
_atom_site_fract_y
_atom_site_fract_z
O1 O 0.15066(16) 0.68521(11) 0.41558(8)
O2 O 0.07702(14) 0.60069(10) 0.33464(8)
O3 O 0.42616(17) 0.47466(12) 0.20532(11)
O4 O 0.36056(15) 0.35358(10) 0.19557(9)
N1 N 0.63183(17) 0.83969(11) 0.45931(9)
N2 N 0.45925(16) 0.78926(10) 0.40174(8)
N3 N 0.44036(15) 0.65182(10) 0.39003(8)
N4 N 0.61756(16) 0.70809(11) 0.44721(9)
N5 N 0.60411(16) 0.57993(10) 0.43144(9)
H1 H 0.676260 0.584263 0.439878
N6 N 0.24351(16) 0.45565(10) 0.19175(8)
N7 N 0.15795(15) 0.40826(10) 0.20000(8)
H2 H 0.103239 0.396428 0.167181
N8 N 0.06667(16) 0.33897(12) 0.25833(9)
N9 N 0.14740(15) 0.32437(11) 0.37133(8)
N10 N 0.24612(15) 0.39578(10) 0.30890(8)
N11 N -0.02775(19) 0.27390(17) 0.32013(10)
N12 N 0.32032(15) 0.37523(11) 0.41818(8)
H3 H 0.305190 0.364432 0.453684
N13 N 0.22046(16) 0.67385(10) 0.32872(9)
N14 N 0.29210(16) 0.73523(11) 0.35014(9)
H4 H 0.266472 0.781273 0.342843
C1 C 0.5679(2) 0.77754(13) 0.43527(10)
C2 C 0.40146(19) 0.72432(12) 0.38227(10)
C3 C 0.54964(19) 0.64861(12) 0.42201(10)
C4 C 0.56753(18) 0.50303(12) 0.43034(10)
C5 C 0.45516(18) 0.47954(13) 0.41746(10)
H5 H 0.396661 0.514983 0.405397
C6 C 0.43262(18) 0.40199(13) 0.42306(10)
C7 C 0.5190(2) 0.34812(14) 0.44072(12)
H6 H 0.502365 0.296384 0.443746
C8 C 0.6298(2) 0.37227(15) 0.45372(13)
H7 H 0.688282 0.336843 0.466131
C9 C 0.65370(19) 0.44905(14) 0.44827(12)
H8 H 0.728455 0.464904 0.456700
C10 C 0.23547(18) 0.36509(12) 0.36376(10)
C11 C 0.15830(18) 0.37992(12) 0.25884(10)
C12 C 0.06506(19) 0.31347(15) 0.31697(11)
C13 C -0.1339(4) 0.2856(3) 0.2659(2)
H9 H -0.200796 0.279521 0.280869
H10 H -0.134916 0.336248 0.247055
C14 C -0.1274(6) 0.2244(4) 0.2190(3)
H11 H -0.200638 0.216936 0.189584
H12 H -0.102362 0.177352 0.241457
H13 H -0.074940 0.239566 0.195583
C15 C -0.0385(2) 0.2445(2) 0.38167(13)
H14 H 0.035011 0.227464 0.407266
H15 H -0.088230 0.200198 0.373615
C16 C -0.0841(3) 0.3029(3) 0.41958(17)
H16 H -0.157970 0.318935 0.395142
H17 H -0.034689 0.346551 0.428519
H18 H -0.088770 0.280310 0.459225
C17 C 0.2273(2) 0.53702(13) 0.19944(11)
C18 C 0.23674(19) 0.56687(13) 0.25976(10)
H19 H 0.257967 0.535418 0.295769
C19 C 0.21439(19) 0.64375(13) 0.26624(10)
C20 C 0.1861(2) 0.69166(15) 0.21302(12)
H20 H 0.171342 0.743470 0.217468
C21 C 0.1801(3) 0.66129(17) 0.15369(13)
H21 H 0.163181 0.693255 0.117920
C22 C 0.1989(3) 0.58390(16) 0.14624(13)
H22 H 0.192337 0.563712 0.105631
C23 C 0.3470(2) 0.42204(14) 0.19781(11)
C24 C 0.5473(3) 0.4533(2) 0.22124(18)
C25 C 0.5760(4) 0.3971(3) 0.2798(2)
H23 H 0.544288 0.416476 0.312613
H24 H 0.656467 0.393047 0.296573
H25 H 0.544868 0.347365 0.266296
C26 C 0.5725(5) 0.4266(4) 0.1634(2)
H26 H 0.542415 0.375842 0.153206
H27 H 0.652867 0.425470 0.170021
H28 H 0.539073 0.460730 0.128578
C27 C 0.6028(5) 0.5310(3) 0.2455(3)
H29 H 0.573159 0.570071 0.214190
H30 H 0.682993 0.527173 0.252320
H31 H 0.586818 0.544059 0.285202
C28 C 0.1481(2) 0.65544(13) 0.36485(11)
C29 C -0.0083(2) 0.56815(17) 0.36260(14)
C30 C 0.0498(3) 0.5292(2) 0.42576(16)
H32 H 0.107143 0.495079 0.419552
H33 H -0.004731 0.500522 0.440586
H34 H 0.083714 0.567442 0.457048
C31 C -0.0646(3) 0.5087(2) 0.31326(16)
H35 H -0.099394 0.533692 0.273224
H36 H -0.121017 0.481860 0.327857
H37 H -0.009024 0.472829 0.307385
C32 C -0.0911(3) 0.6293(3) 0.3686(2)
H38 H -0.054711 0.665026 0.401572
H39 H -0.153930 0.605971 0.379614
H40 H -0.117453 0.655989 0.328501
C33 C 0.5882(2) 0.91757(14) 0.44428(12)
H41 H 0.621787 0.950684 0.480490
H42 H 0.507325 0.917071 0.438581
C34 C 0.6114(3) 0.95104(17) 0.38491(14)
H43 H 0.585883 0.915911 0.349752
H44 H 0.690986 0.959579 0.392631
H45 H 0.571936 0.998941 0.374563
C35 C 0.7506(2) 0.83029(15) 0.49454(12)
H46 H 0.757496 0.786869 0.523419
H47 H 0.775368 0.875735 0.520494
C36 C 0.8270(3) 0.8178(2) 0.45246(15)
H48 H 0.819210 0.859795 0.422814
H49 H 0.807056 0.770690 0.429083
H50 H 0.903754 0.814962 0.478427
C37? C -0.1085(5) 0.2424(4) 0.2615(3)
H51? H -0.141242 0.194652 0.271021
H52? H -0.071026 0.232927 0.228239
C38? C -0.1989(8) 0.3037(5) 0.2403(5)
H53? H -0.259703 0.283979 0.206250
H54? H -0.167060 0.348026 0.225452
H55? H -0.226959 0.317884 0.275959
C39? C 0.5690(10) 0.3865(7) 0.1744(5)
H56? H 0.533576 0.339862 0.182535
H57? H 0.648712 0.378186 0.182377
H58? H 0.537627 0.401654 0.130558
C40? C 0.5972(15) 0.4391(12) 0.2882(5)
H59? H 0.579169 0.480662 0.312836
H60? H 0.677636 0.435327 0.296337
H61? H 0.568114 0.391949 0.300201
C41? C 0.5914(15) 0.5189(9) 0.1864(9)
H62? H 0.568443 0.509781 0.140967
H63? H 0.672313 0.520745 0.201109
H64? H 0.560786 0.566993 0.195516
loop_
_geom_bond_atom_site_label_1
_geom_bond_atom_site_label_2
_geom_bond_site_symmetry_1
_geom_bond_site_symmetry_2
O1 C28 1_555 1_555
O2 C28 1_555 1_555
O3 C23 1_555 1_555
O4 C23 1_555 1_555
N1 C1 1_555 1_555
N2 C1 1_555 1_555
N3 C2 1_555 1_555
N4 C1 1_555 1_555
N5 H1 1_555 1_555
N6 N7 1_555 1_555
N7 H2 1_555 1_555
N8 C11 1_555 1_555
N9 C10 1_555 1_555
N10 C10 1_555 1_555
N11 C12 1_555 1_555
N12 H3 1_555 1_555
N13 N14 1_555 1_555
N14 H4 1_555 1_555
C2 N2 1_555 1_555
C3 N3 1_555 1_555
C4 N5 1_555 1_555
C5 C4 1_555 1_555
H5 C5 1_555 1_555
C6 N12 1_555 1_555
C7 C6 1_555 1_555
H6 C7 1_555 1_555
C8 C7 1_555 1_555
H7 C8 1_555 1_555
C9 C4 1_555 1_555
H8 C9 1_555 1_555
C10 N12 1_555 1_555
C11 N7 1_555 1_555
C12 N8 1_555 1_555
C13 N11 1_555 1_555
H9 C13 1_555 1_555
H10 C13 1_555 1_555
C14 C13 1_555 1_555
H11 C14 1_555 1_555
H12 C14 1_555 1_555
H13 C14 1_555 1_555
C15 N11 1_555 1_555
H14 C15 1_555 1_555
H15 C15 1_555 1_555
C16 C15 1_555 1_555
H16 C16 1_555 1_555
H17 C16 1_555 1_555
H18 C16 1_555 1_555
C17 N6 1_555 1_555
C18 C17 1_555 1_555
H19 C18 1_555 1_555
C19 N13 1_555 1_555
C20 C19 1_555 1_555
H20 C20 1_555 1_555
C21 C20 1_555 1_555
H21 C21 1_555 1_555
C22 C17 1_555 1_555
H22 C22 1_555 1_555
C23 N6 1_555 1_555
C24 O3 1_555 1_555
C25 C24 1_555 1_555
H23 C25 1_555 1_555
H24 C25 1_555 1_555
H25 C25 1_555 1_555
C26 C24 1_555 1_555
H26 C26 1_555 1_555
H27 C26 1_555 1_555
H28 C26 1_555 1_555
C27 C24 1_555 1_555
H29 C27 1_555 1_555
H30 C27 1_555 1_555
H31 C27 1_555 1_555
C28 N13 1_555 1_555
C29 O2 1_555 1_555
C30 C29 1_555 1_555
H32 C30 1_555 1_555
H33 C30 1_555 1_555
H34 C30 1_555 1_555
C31 C29 1_555 1_555
H35 C31 1_555 1_555
H36 C31 1_555 1_555
H37 C31 1_555 1_555
C32 C29 1_555 1_555
H38 C32 1_555 1_555
H39 C32 1_555 1_555
H40 C32 1_555 1_555
C33 N1 1_555 1_555
H41 C33 1_555 1_555
H42 C33 1_555 1_555
C34 C33 1_555 1_555
H43 C34 1_555 1_555
H44 C34 1_555 1_555
H45 C34 1_555 1_555
C35 N1 1_555 1_555
H46 C35 1_555 1_555
H47 C35 1_555 1_555
C36 C35 1_555 1_555
H48 C36 1_555 1_555
H49 C36 1_555 1_555
H50 C36 1_555 1_555
N4 C3 1_555 1_555
N5 C3 1_555 1_555
N9 C12 1_555 1_555
N10 C11 1_555 1_555
N14 C2 1_555 1_555
C5 C6 1_555 1_555
C8 C9 1_555 1_555
C18 C19 1_555 1_555
C21 C22 1_555 1_555

#END
