
#######################################################################
#
#                 Cambridge Crystallographic Data Centre
#                                CCDC 
#
#######################################################################
#
# If this CIF has been generated from an entry in the Cambridge 
# Structural Database, then it will include bibliographic, chemical, 
# crystal, experimental, refinement or atomic coordinate data resulting 
# from the CCDC's data processing and validation procedures.
#
#######################################################################

data_ZETNUK
_chemical_formula_moiety         'C29 H27 Cl2 N11 O6'
_chemical_name_systematic        
'di-t-butyl 11,25-dichloro-30-cyano-2,8-dioxa-10,12,14,15,21,22,24,26,27,29-decaazapentacyclo[21.3.1.1^3,7^.1^9,13^.1^16,20^]triaconta-1(27),3(30),4,6,9(29),10,12,16(28),17,19,23,25-dodecaene-15,21-dicarboxylate'
_symmetry_cell_setting           monoclinic
_symmetry_space_group_name_H-M   'P 21/c'
_symmetry_Int_Tables_number      14
_space_group_name_Hall           '-P 2ybc'
loop_
_symmetry_equiv_pos_site_id
_symmetry_equiv_pos_as_xyz
1 x,y,z
2 -x,1/2+y,1/2-z
3 -x,-y,-z
4 x,1/2-y,1/2+z
_cell_length_a                   17.878(4)
_cell_length_b                   11.555(2)
_cell_length_c                   18.777(4)
_cell_angle_alpha                90
_cell_angle_beta                 118.16(3)
_cell_angle_gamma                90
_cell_volume                     3419.82
_exptl_crystal_colour            colorless
_exptl_crystal_description       block
_cell_formula_units_Z            4
loop_
_atom_site_label
_atom_site_type_symbol
_atom_site_fract_x
_atom_site_fract_y
_atom_site_fract_z
C1 C -0.27855(14) 0.2431(2) -0.41826(13)
C2 C -0.40581(15) 0.1855(2) -0.50638(14)
C3 C -0.39102(14) 0.34250(19) -0.43298(12)
C4 C -0.35902(14) 0.59476(19) -0.42393(13)
C5 C -0.27617(17) 0.7640(2) -0.42177(15)
C6 C -0.3528(2) 0.8319(3) -0.4800(2)
H1 H -0.3874 0.7845 -0.5259
H2 H -0.3347 0.8993 -0.4977
H3 H -0.3851 0.8553 -0.4536
C7 C -0.23062(19) 0.7057(3) -0.4629(2)
H4 H -0.1883 0.6539 -0.4256
H5 H -0.2040 0.7634 -0.4802
H6 H -0.2708 0.6629 -0.5090
C8 C -0.2158(3) 0.8380(3) -0.3516(2)
H7 H -0.2453 0.8699 -0.3246
H8 H -0.1946 0.8997 -0.3713
H9 H -0.1693 0.7914 -0.3144
C9 C -0.31202(13) 0.44537(19) -0.24048(13)
H10 H -0.3090 0.3748 -0.2628
C10 C -0.34688(13) 0.54072(19) -0.28929(12)
C11 C -0.35064(15) 0.6475(2) -0.25704(14)
H11 H -0.3751 0.7111 -0.2904
C12 C -0.31710(17) 0.6570(2) -0.17393(15)
H12 H -0.3180 0.7283 -0.1514
C13 C -0.28238(15) 0.5622(2) -0.12396(14)
H13 H -0.2599 0.5699 -0.0683
C14 C -0.28134(13) 0.45574(19) -0.15746(12)
C15 C -0.27559(14) 0.2461(2) -0.11540(13)
C16 C -0.39168(17) 0.1256(2) -0.21306(15)
C17 C -0.4661(2) 0.1608(3) -0.29260(17)
H14 H -0.4950 0.2250 -0.2840
H15 H -0.5045 0.0968 -0.3145
H16 H -0.4459 0.1830 -0.3298
C18 C -0.4216(2) 0.0862(3) -0.15397(18)
H17 H -0.3737 0.0611 -0.1049
H18 H -0.4608 0.0232 -0.1770
H19 H -0.4492 0.1492 -0.1425
C19 C -0.3358(2) 0.0376(4) -0.2241(3)
H20 H -0.3162 0.0681 -0.2599
H21 H -0.3677 -0.0319 -0.2468
H22 H -0.2881 0.0205 -0.1727
C20 C -0.09649(14) 0.3668(2) -0.01734(13)
C21 C 0.03991(15) 0.3520(2) 0.07052(14)
C22 C -0.00106(15) 0.3455(2) -0.05976(14)
C23 C -0.09389(15) 0.2798(2) -0.24857(14)
C24 C -0.03189(15) 0.3586(3) -0.19876(14)
C25 C -0.01558(17) 0.4570(3) -0.22966(16)
H23 H 0.0261 0.5084 -0.1959
C26 C -0.06181(19) 0.4794(3) -0.31188(17)
H24 H -0.0516 0.5470 -0.3328
C27 C -0.12275(17) 0.4027(3) -0.36306(15)
H25 H -0.1528 0.4174 -0.4182
C28 C -0.13813(14) 0.3048(2) -0.33124(14)
C29 C -0.11132(17) 0.1755(3) -0.21814(16)
N1 N -0.30594(12) 0.33450(17) -0.39596(11)
N2 N -0.32359(13) 0.16352(18) -0.47411(12)
N3 N -0.44509(12) 0.26863(17) -0.48977(11)
N4 N -0.42723(11) 0.42876(16) -0.41117(11)
H26 H -0.4787 0.4223 -0.4196
N5 N -0.38084(11) 0.52779(16) -0.37506(10)
N6 N -0.24419(12) 0.35871(17) -0.10518(11)
N7 N -0.17665(12) 0.38101(18) -0.02997(10)
H27 H -0.1858 0.4040 0.0088
N8 N -0.08257(12) 0.35786(19) -0.08171(11)
N9 N -0.03686(13) 0.36714(19) 0.06071(11)
N10 N 0.06453(13) 0.3418(2) 0.01378(12)
N11 N -0.1255(2) 0.0902(3) -0.19505(19)
O1 O -0.19442(10) 0.22035(16) -0.38190(10)
O2 O -0.38939(10) 0.57727(15) -0.49603(9)
O3 O -0.30240(11) 0.67414(15) -0.38085(10)
O4 O -0.24236(12) 0.17265(16) -0.06453(10)
O5 O -0.34505(12) 0.23666(16) -0.18579(10)
O6 O 0.02321(11) 0.3327(2) -0.11806(10)
Cl1 Cl -0.47050(4) 0.09193(6) -0.58263(4)
Cl2 Cl 0.12024(4) 0.34478(8) 0.16857(4)
loop_
_geom_bond_atom_site_label_1
_geom_bond_atom_site_label_2
_geom_bond_site_symmetry_1
_geom_bond_site_symmetry_2
C1 N1 1_555 1_555
C2 N2 1_555 1_555
C3 N1 1_555 1_555
C4 N5 1_555 1_555
C5 C6 1_555 1_555
C6 H1 1_555 1_555
H2 C6 1_555 1_555
H3 C6 1_555 1_555
C7 C5 1_555 1_555
H4 C7 1_555 1_555
H5 C7 1_555 1_555
H6 C7 1_555 1_555
C8 C5 1_555 1_555
H7 C8 1_555 1_555
H8 C8 1_555 1_555
H9 C8 1_555 1_555
C9 H10 1_555 1_555
C10 C9 1_555 1_555
C11 C10 1_555 1_555
H11 C11 1_555 1_555
C12 C11 1_555 1_555
H12 C12 1_555 1_555
C13 C12 1_555 1_555
H13 C13 1_555 1_555
C14 C9 1_555 1_555
C15 N6 1_555 1_555
C16 C17 1_555 1_555
C17 H14 1_555 1_555
H15 C17 1_555 1_555
H16 C17 1_555 1_555
C18 C16 1_555 1_555
H17 C18 1_555 1_555
H18 C18 1_555 1_555
H19 C18 1_555 1_555
C19 C16 1_555 1_555
H20 C19 1_555 1_555
H21 C19 1_555 1_555
H22 C19 1_555 1_555
C20 N7 1_555 1_555
C21 N9 1_555 1_555
C22 N8 1_555 1_555
C23 C24 1_555 1_555
C24 C25 1_555 1_555
C25 H23 1_555 1_555
C26 C25 1_555 1_555
H24 C26 1_555 1_555
C27 C26 1_555 1_555
H25 C27 1_555 1_555
C28 C23 1_555 1_555
C29 C23 1_555 1_555
N2 C1 1_555 1_555
N3 C2 1_555 1_555
N4 C3 1_555 1_555
H26 N4 1_555 1_555
N5 C10 1_555 1_555
N6 C14 1_555 1_555
N7 N6 1_555 1_555
H27 N7 1_555 1_555
N8 C20 1_555 1_555
N9 C20 1_555 1_555
N10 C21 1_555 1_555
N11 C29 1_555 1_555
O1 C1 1_555 1_555
O2 C4 1_555 1_555
O3 C4 1_555 1_555
O4 C15 1_555 1_555
O5 C15 1_555 1_555
O6 C22 1_555 1_555
Cl1 C2 1_555 1_555
Cl2 C21 1_555 1_555
C3 N3 1_555 1_555
C5 O3 1_555 1_555
C13 C14 1_555 1_555
C16 O5 1_555 1_555
C22 N10 1_555 1_555
C24 O6 1_555 1_555
C27 C28 1_555 1_555
C28 O1 1_555 1_555
N4 N5 1_555 1_555

#END
