
#######################################################################
#
#                 Cambridge Crystallographic Data Centre
#                                CCDC 
#
#######################################################################
#
# If this CIF has been generated from an entry in the Cambridge 
# Structural Database, then it will include bibliographic, chemical, 
# crystal, experimental, refinement or atomic coordinate data resulting 
# from the CCDC's data processing and validation procedures.
#
#######################################################################

data_ZETYUV
_chemical_formula_moiety         'C20 H16 F2 N2 O3'
_chemical_name_systematic        
2-[3-(2,4-difluorophenyl)bicyclo[2.2.1]heptan-2-yl]-6-nitro-1,3-benzoxazole
_symmetry_cell_setting           monoclinic
_symmetry_space_group_name_H-M   'P 21/n'
_symmetry_Int_Tables_number      14
_space_group_name_Hall           '-P 2yn'
loop_
_symmetry_equiv_pos_site_id
_symmetry_equiv_pos_as_xyz
1 x,y,z
2 1/2-x,1/2+y,1/2-z
3 -x,-y,-z
4 1/2+x,1/2-y,1/2+z
_cell_length_a                   6.3289(5)
_cell_length_b                   14.3422(11)
_cell_length_c                   18.7478(15)
_cell_angle_alpha                90
_cell_angle_beta                 96.896(8)
_cell_angle_gamma                90
_cell_volume                     1689.43
_exptl_crystal_colour            colorless
_exptl_crystal_description       block
_cell_formula_units_Z            4
loop_
_atom_site_label
_atom_site_type_symbol
_atom_site_fract_x
_atom_site_fract_y
_atom_site_fract_z
O1 O 0.9923(2) 0.70785(10) -0.00283(8)
N1 N 0.6775(3) 0.63443(12) -0.02237(9)
C1 C 0.9993(3) 0.63426(14) 0.04405(11)
F1 F 1.0030(2) 0.91153(11) 0.03898(9)
C2 C 0.7913(3) 0.70301(15) -0.04006(11)
C3 C 1.1648(3) 0.60818(16) 0.09396(12)
H1 H 1.2973 0.6401 0.1005
C4 C 0.7704(3) 0.51064(16) 0.07263(11)
H2 H 0.6398 0.4774 0.0649
C5 C 0.9311(4) 0.48301(16) 0.12442(12)
H3 H 0.9112 0.4305 0.1538
C6 C 0.8062(3) 0.58847(14) 0.03239(10)
N2 N 1.2868(4) 0.50027(17) 0.19009(11)
C7 C 1.1210(3) 0.53134(16) 0.13378(11)
C8 C 0.7376(3) 0.77906(15) -0.09286(12)
H4 H 0.8677 0.7961 -0.1155
O2 O 1.2471(3) 0.43255(15) 0.22646(10)
C9 C 0.3606(3) 0.78036(17) -0.11773(12)
H5 H 0.3460 0.7443 -0.0736
H6 H 0.2285 0.7758 -0.1517
O3 O 1.4535(3) 0.54315(17) 0.19877(10)
C10 C 0.6465(3) 0.86325(15) 0.02275(13)
C11 C 0.5583(3) 0.75433(16) -0.15181(11)
H7 H 0.5608 0.6883 -0.1688
C12 C 0.4308(4) 0.88096(16) -0.10221(13)
H8 H 0.3270 0.9195 -0.0787
C13 C 0.6489(3) 0.86949(15) -0.05748(12)
H9 H 0.7400 0.9237 -0.0677
F2 F 0.6785(3) 0.84305(14) 0.24258(8)
C14 C 0.8285(4) 0.88369(16) 0.06829(14)
C15 C 0.4732(4) 0.83694(18) 0.05597(13)
H10 H 0.3434 0.8230 0.0270
C16 C 0.5569(4) 0.82711(17) -0.21141(13)
H11 H 0.4637 0.8076 -0.2551
H12 H 0.7022 0.8384 -0.2240
C17 C 0.8450(5) 0.87761(18) 0.14127(16)
H13 H 0.9738 0.8920 0.1706
C18 C 0.4680(4) 0.91427(18) -0.17732(13)
H14 H 0.5717 0.9662 -0.1745
H15 H 0.3332 0.9350 -0.2051
C19 C 0.4807(4) 0.8300(2) 0.12950(14)
H16 H 0.3591 0.8119 0.1513
C20 C 0.6688(5) 0.8501(2) 0.16975(14)
loop_
_geom_bond_atom_site_label_1
_geom_bond_atom_site_label_2
_geom_bond_site_symmetry_1
_geom_bond_site_symmetry_2
O1 C1 1_555 1_555
N1 C2 1_555 1_555
C1 C3 1_555 1_555
F1 C14 1_555 1_555
C2 O1 1_555 1_555
C3 H1 1_555 1_555
C4 H2 1_555 1_555
C5 C4 1_555 1_555
H3 C5 1_555 1_555
C6 N1 1_555 1_555
N2 C7 1_555 1_555
C7 C3 1_555 1_555
C8 C2 1_555 1_555
H4 C8 1_555 1_555
O2 N2 1_555 1_555
C9 H5 1_555 1_555
H6 C9 1_555 1_555
O3 N2 1_555 1_555
C10 C13 1_555 1_555
C11 C8 1_555 1_555
H7 C11 1_555 1_555
C12 C9 1_555 1_555
H8 C12 1_555 1_555
C13 C8 1_555 1_555
H9 C13 1_555 1_555
F2 C20 1_555 1_555
C14 C10 1_555 1_555
C15 C10 1_555 1_555
H10 C15 1_555 1_555
C16 C11 1_555 1_555
H11 C16 1_555 1_555
H12 C16 1_555 1_555
C17 C14 1_555 1_555
H13 C17 1_555 1_555
C18 C12 1_555 1_555
H14 C18 1_555 1_555
H15 C18 1_555 1_555
C19 C15 1_555 1_555
H16 C19 1_555 1_555
C20 C17 1_555 1_555
C1 C6 1_555 1_555
C4 C6 1_555 1_555
C5 C7 1_555 1_555
C9 C11 1_555 1_555
C12 C13 1_555 1_555
C16 C18 1_555 1_555
C19 C20 1_555 1_555

#END
