
#######################################################################
#
#                 Cambridge Crystallographic Data Centre
#                                CCDC 
#
#######################################################################
#
# If this CIF has been generated from an entry in the Cambridge 
# Structural Database, then it will include bibliographic, chemical, 
# crystal, experimental, refinement or atomic coordinate data resulting 
# from the CCDC's data processing and validation procedures.
#
#######################################################################

data_ZEVSOI
_chemical_name_common            UK-91,473
_chemical_formula_moiety         'C26 H24 N8 O1 2+,2(N1 O3 1-),2(H2 O1)'
_chemical_name_systematic        
'1,6,7,8-Tetrahydro-1,8-dimethyl-5-(4-(2-methylimidazo(4,5-c)pyrid-1-yl)phenyl)-7-oxo-3-(3-pyridyl)pyrazolo(3,4-b)(1,4)diazepine dinitrate dihydrate'
_chemical_properties_biological  
'platelet-activating factor antagonist activity'
_symmetry_cell_setting           monoclinic
_symmetry_space_group_name_H-M   'P 21/a'
_symmetry_Int_Tables_number      14
_space_group_name_Hall           '-P 2yab'
loop_
_symmetry_equiv_pos_site_id
_symmetry_equiv_pos_as_xyz
1 x,y,z
2 1/2-x,1/2+y,-z
3 -x,-y,-z
4 1/2+x,1/2-y,z
_cell_length_a                   9.517(3)
_cell_length_b                   20.597(8)
_cell_length_c                   14.719(4)
_cell_angle_alpha                90
_cell_angle_beta                 90.39(2)
_cell_angle_gamma                90
_cell_volume                     2885.18
_exptl_crystal_colour            creamy-colored
_chemical_melting_point          240-242deg.C
_cell_formula_units_Z            4
loop_
_atom_site_label
_atom_site_type_symbol
_atom_site_fract_x
_atom_site_fract_y
_atom_site_fract_z
C1 C 1.0107(6) 0.1385(3) 0.4405(4)
C2 C 0.9712(7) 0.2044(3) 0.4806(4)
C3 C 1.0402(7) 0.2154(3) 0.5716(4)
N1 N 0.9946(5) 0.1763(2) 0.6397(3)
C4 C 0.8971(6) 0.1269(3) 0.6232(4)
C5 C 0.8843(6) 0.0857(3) 0.5495(4)
N2 N 0.9648(5) 0.0842(2) 0.4709(3)
N3 N 0.7992(5) 0.1086(3) 0.6842(3)
N4 N 0.7240(6) 0.0578(3) 0.6545(4)
C6 C 0.7767(6) 0.0432(3) 0.5735(4)
C7 C 0.7129(6) -0.0104(3) 0.5240(4)
C8 C 0.6071(6) -0.0474(3) 0.5635(5)
N5 N 0.5428(5) -0.0949(3) 0.5197(4)
C9 C 0.5769(8) -0.1099(3) 0.4345(5)
C10 C 0.6801(7) -0.0764(3) 0.3905(5)
C11 C 0.7483(7) -0.0271(3) 0.4358(4)
C12 C 1.1098(6) 0.1387(3) 0.3627(4)
C13 C 1.0960(7) 0.0922(3) 0.2933(4)
C14 C 1.1905(7) 0.0914(3) 0.2227(4)
C15 C 1.2997(6) 0.1354(3) 0.2215(4)
C16 C 1.3161(6) 0.1808(3) 0.2896(4)
C17 C 1.2168(6) 0.1833(3) 0.3578(4)
N6 N 1.4030(6) 0.1348(3) 0.1493(3)
C18 C 1.4739(7) 0.0815(3) 0.1123(4)
N7 N 1.5659(6) 0.0989(3) 0.0526(4)
C19 C 1.5590(6) 0.1658(3) 0.0501(4)
C20 C 1.4581(7) 0.1892(3) 0.1099(4)
C21 C 1.4327(7) 0.2544(3) 0.1185(5)
C22 C 1.5113(7) 0.2953(4) 0.0658(5)
N8 N 1.6100(6) 0.2710(3) 0.0089(4)
C23 C 1.6353(7) 0.2080(4) -0.0006(5)
O1 O 1.1337(5) 0.2549(2) 0.5820(3)
C24 C 1.0655(7) 0.1820(4) 0.7280(4)
C25 C 0.7583(8) 0.1411(4) 0.7681(5)
C26 C 1.4445(8) 0.0135(3) 0.1384(5)
H1 H 0.8711 0.2062 0.4878
H2 H 1.0005 0.2379 0.4397
H3 H 0.5798 -0.0379 0.6248
H4 H 0.4613(59) -0.1203(27) 0.5576(38)
H5 H 0.5285 -0.1445 0.4038
H6 H 0.7044 -0.0871 0.3291
H7 H 0.8220 -0.0038 0.4057
H8 H 1.0208 0.0612 0.2950
H9 H 1.1804 0.0602 0.1746
H10 H 1.3947 0.2101 0.2897
H11 H 1.2228 0.2169 0.4028
H12 H 1.3631 0.2707 0.1596
H13 H 1.4964 0.3413 0.0692
H14 H 1.6635(57) 0.3058(27) -0.0308(37)
H15 H 1.7055 0.1927 -0.0420
H16 H 1.0218 0.2157 0.7628
H17 H 1.1627 0.1925 0.7190
H18 H 1.0584 0.1416 0.7600
H19 H 0.7747 0.1869 0.7627
H20 H 0.8130 0.1241 0.8178
H21 H 0.6604 0.1335 0.7792
H22 H 1.4351 0.0107 0.2032
H23 H 1.5206 -0.0138 0.1192
H24 H 1.3589 -0.0006 0.1098
N9 N 0.3407(6) 0.1626(3) 0.8658(4)
O2 O 0.2559(6) 0.1323(3) 0.9160(4)
O3 O 0.4073(6) 0.1316(3) 0.8102(4)
O4 O 0.3537(6) 0.2215(3) 0.8766(4)
N10 N 0.6878(6) 0.1322(3) 0.3140(4)
O5 O 0.6356(6) 0.0796(3) 0.2990(4)
O6 O 0.6551(5) 0.1611(2) 0.3874(4)
O7 O 0.7727(7) 0.1570(3) 0.2638(5)
O8 O 0.8296(9) -0.0103(4) 0.1947(6)
O9 O 1.3592(21) 0.4362(10) -0.0103(14)
O10? O 1.4697(31) 0.4614(14) 0.0631(20)
loop_
_geom_bond_atom_site_label_1
_geom_bond_atom_site_label_2
_geom_bond_site_symmetry_1
_geom_bond_site_symmetry_2
C1 C2 1_555 1_555
C2 C3 1_555 1_555
C3 N1 1_555 1_555
N1 C4 1_555 1_555
C4 C5 1_555 1_555
C5 N2 1_555 1_555
N2 C1 1_555 1_555
N3 C4 1_555 1_555
N4 N3 1_555 1_555
C6 C5 1_555 1_555
C7 C6 1_555 1_555
C8 C7 1_555 1_555
N5 C8 1_555 1_555
C9 N5 1_555 1_555
C10 C9 1_555 1_555
C11 C7 1_555 1_555
C12 C1 1_555 1_555
C13 C12 1_555 1_555
C14 C13 1_555 1_555
C15 C14 1_555 1_555
C16 C15 1_555 1_555
C17 C12 1_555 1_555
N6 C15 1_555 1_555
C18 N6 1_555 1_555
N7 C18 1_555 1_555
C19 N7 1_555 1_555
C20 N6 1_555 1_555
C21 C20 1_555 1_555
C22 C21 1_555 1_555
N8 C22 1_555 1_555
C23 C19 1_555 1_555
O1 C3 1_555 1_555
C24 N1 1_555 1_555
C25 N3 1_555 1_555
C26 C18 1_555 1_555
N9 O2 1_555 1_555
O3 N9 1_555 1_555
O4 N9 1_555 1_555
N10 O5 1_555 1_555
O6 N10 1_555 1_555
O7 N10 1_555 1_555
H1 C2 1_555 1_555
H2 C2 1_555 1_555
H3 C8 1_555 1_555
H4 N5 1_555 1_555
H5 C9 1_555 1_555
H6 C10 1_555 1_555
H7 C11 1_555 1_555
H8 C13 1_555 1_555
H9 C14 1_555 1_555
H10 C16 1_555 1_555
H11 C17 1_555 1_555
H12 C21 1_555 1_555
H13 C22 1_555 1_555
H14 N8 1_555 1_555
H15 C23 1_555 1_555
H16 C24 1_555 1_555
H17 C24 1_555 1_555
H18 C24 1_555 1_555
H19 C25 1_555 1_555
H20 C25 1_555 1_555
H21 C25 1_555 1_555
H22 C26 1_555 1_555
H23 C26 1_555 1_555
H24 C26 1_555 1_555
N4 C6 1_555 1_555
C10 C11 1_555 1_555
C16 C17 1_555 1_555
C19 C20 1_555 1_555
N8 C23 1_555 1_555

#END
