
#######################################################################
#
#                 Cambridge Crystallographic Data Centre
#                                CCDC 
#
#######################################################################
#
# If this CIF has been generated from an entry in the Cambridge 
# Structural Database, then it will include bibliographic, chemical, 
# crystal, experimental, refinement or atomic coordinate data resulting 
# from the CCDC's data processing and validation procedures.
#
#######################################################################

data_ZEVWAB
_chemical_formula_moiety         'C26 H40 O5,H2 O1'
_chemical_name_systematic        
'17-(2,6-dihydroxy-5-methylhexyl)-16-hydroxy-10,13-dimethyl-6,7,8,9,11,13,14,15,16,17-decahydro-1H-cyclopenta[a]phenanthrene-3,12(2H,10H)-dione monohydrate'
_symmetry_cell_setting           orthorhombic
_symmetry_space_group_name_H-M   'P 21 21 21'
_symmetry_Int_Tables_number      19
_space_group_name_Hall           'P 2ac 2ab'
loop_
_symmetry_equiv_pos_site_id
_symmetry_equiv_pos_as_xyz
1 x,y,z
2 1/2-x,-y,1/2+z
3 -x,1/2+y,1/2-z
4 1/2+x,1/2-y,-z
_cell_length_a                   9.6973(5)
_cell_length_b                   12.1627(7)
_cell_length_c                   21.3351(13)
_cell_angle_alpha                90
_cell_angle_beta                 90
_cell_angle_gamma                90
_cell_volume                     2516.38
_exptl_crystal_colour            colorless
_exptl_crystal_description       block
_cell_formula_units_Z            4
loop_
_atom_site_label
_atom_site_type_symbol
_atom_site_fract_x
_atom_site_fract_y
_atom_site_fract_z
C1 C 0.9390(2) 0.2726(2) 0.63410(12)
H1 H 0.8534 0.2834 0.6568
H2 H 0.9222 0.2183 0.6017
O1 O 1.2737(2) 0.15548(19) 0.66864(9)
C2 C 1.0481(3) 0.2285(2) 0.67916(12)
H3 H 1.0542 0.2768 0.7152
H4 H 1.0203 0.1564 0.6939
O2 O 0.52626(18) 0.39820(15) 0.50659(9)
C3 C 1.1865(3) 0.2201(2) 0.64909(12)
O3 O 0.67935(18) 0.75678(14) 0.38004(9)
H5 H 0.6047 0.7714 0.3640
C4 C 1.2156(3) 0.2944(2) 0.59766(12)
H6 H 1.3004 0.2883 0.5777
O4 O 0.41639(17) 0.73006(14) 0.33681(8)
H7 H 0.3541 0.7694 0.3237
C5 C 1.1274(2) 0.3714(2) 0.57721(11)
O5 O 0.0761(2) 0.37323(19) 0.16025(10)
H8 H 0.1452 0.3419 0.1472
C6 C 1.1732(2) 0.4570(3) 0.53103(13)
H9 H 1.2590 0.4334 0.5119
H10 H 1.1910 0.5251 0.5532
C7 C 1.0677(2) 0.4786(3) 0.47950(13)
H11 H 1.0611 0.4146 0.4526
H12 H 1.0980 0.5403 0.4541
C8 C 0.9263(2) 0.50395(19) 0.50732(11)
H13 H 0.9337 0.5694 0.5339
C9 C 0.8799(2) 0.40605(19) 0.54797(11)
H14 H 0.8837 0.3415 0.5206
C10 C 0.9811(2) 0.38152(18) 0.60321(10)
C11 C 0.7279(2) 0.4147(2) 0.57021(12)
H15 H 0.6988 0.3437 0.5861
H16 H 0.7229 0.4669 0.6045
C12 C 0.6291(2) 0.4506(2) 0.51909(11)
C13 C 0.6731(2) 0.55252(18) 0.48409(10)
C14 C 0.8181(2) 0.52463(19) 0.45713(10)
H17 H 0.8083 0.4560 0.4335
C15 C 0.8412(2) 0.6162(2) 0.40913(12)
H18 H 0.9045 0.5924 0.3766
H19 H 0.8785 0.6813 0.4292
C16 C 0.6978(2) 0.6398(2) 0.38148(11)
H20 H 0.6934 0.6109 0.3387
C17 C 0.5922(2) 0.57735(18) 0.42326(10)
H21 H 0.5744 0.5066 0.4029
C18 C 0.6743(3) 0.6517(2) 0.52875(10)
H22 H 0.5852 0.6593 0.5479
H23 H 0.6957 0.7171 0.5056
H24 H 0.7426 0.6405 0.5607
C19 C 0.9805(3) 0.4747(2) 0.65224(12)
H25 H 1.0095 0.5420 0.6328
H26 H 1.0426 0.4565 0.6857
H27 H 0.8890 0.4835 0.6687
C20 C 0.4518(2) 0.63218(19) 0.43368(10)
H28 H 0.4017 0.5894 0.4646
H29 H 0.4677 0.7044 0.4516
C21 C 0.3594(2) 0.64593(18) 0.37653(10)
H30 H 0.2691 0.6713 0.3911
C22 C 0.3375(2) 0.5413(2) 0.33923(11)
H31 H 0.3135 0.4825 0.3679
H32 H 0.4235 0.5215 0.3190
C23 C 0.2252(2) 0.5503(2) 0.28941(11)
H33 H 0.2529 0.6052 0.2589
H34 H 0.1412 0.5761 0.3092
C24 C 0.1939(2) 0.4432(2) 0.25495(11)
H35 H 0.2819 0.4089 0.2435
C25 C 0.1158(3) 0.4682(2) 0.19505(12)
H36 H 0.0336 0.5097 0.2056
H37 H 0.1730 0.5143 0.1686
C26 C 0.1147(3) 0.3628(3) 0.29581(14)
H38 H 0.1654 0.3494 0.3337
H39 H 0.1023 0.2949 0.2736
H40 H 0.0262 0.3934 0.3060
O6 O 0.2013(2) 0.85851(19) 0.30117(9)
H41 H 0.2091 0.8532 0.2606
H42 H 0.1180 0.8403 0.3122
loop_
_geom_bond_atom_site_label_1
_geom_bond_atom_site_label_2
_geom_bond_site_symmetry_1
_geom_bond_site_symmetry_2
C1 H1 1_555 1_555
H2 C1 1_555 1_555
O1 C3 1_555 1_555
C2 C1 1_555 1_555
H3 C2 1_555 1_555
H4 C2 1_555 1_555
O2 C12 1_555 1_555
C3 C2 1_555 1_555
O3 H5 1_555 1_555
C4 C3 1_555 1_555
H6 C4 1_555 1_555
O4 H7 1_555 1_555
C5 C4 1_555 1_555
O5 H8 1_555 1_555
C6 C5 1_555 1_555
H9 C6 1_555 1_555
H10 C6 1_555 1_555
C7 C6 1_555 1_555
H11 C7 1_555 1_555
H12 C7 1_555 1_555
C8 C7 1_555 1_555
H13 C8 1_555 1_555
C9 C8 1_555 1_555
H14 C9 1_555 1_555
C10 C1 1_555 1_555
C11 C9 1_555 1_555
H15 C11 1_555 1_555
H16 C11 1_555 1_555
C12 C11 1_555 1_555
C13 C12 1_555 1_555
C14 C8 1_555 1_555
H17 C14 1_555 1_555
C15 C14 1_555 1_555
H18 C15 1_555 1_555
H19 C15 1_555 1_555
C16 O3 1_555 1_555
H20 C16 1_555 1_555
C17 C13 1_555 1_555
H21 C17 1_555 1_555
C18 C13 1_555 1_555
H22 C18 1_555 1_555
H23 C18 1_555 1_555
H24 C18 1_555 1_555
C19 C10 1_555 1_555
H25 C19 1_555 1_555
H26 C19 1_555 1_555
H27 C19 1_555 1_555
C20 C17 1_555 1_555
H28 C20 1_555 1_555
H29 C20 1_555 1_555
C21 O4 1_555 1_555
H30 C21 1_555 1_555
C22 C21 1_555 1_555
H31 C22 1_555 1_555
H32 C22 1_555 1_555
C23 C22 1_555 1_555
H33 C23 1_555 1_555
H34 C23 1_555 1_555
C24 C23 1_555 1_555
H35 C24 1_555 1_555
C25 O5 1_555 1_555
H36 C25 1_555 1_555
H37 C25 1_555 1_555
C26 C24 1_555 1_555
H38 C26 1_555 1_555
H39 C26 1_555 1_555
H40 C26 1_555 1_555
O6 H41 1_555 1_555
H42 O6 1_555 1_555
C5 C10 1_555 1_555
C9 C10 1_555 1_555
C13 C14 1_555 1_555
C15 C16 1_555 1_555
C16 C17 1_555 1_555
C20 C21 1_555 1_555
C24 C25 1_555 1_555

#END
