
#######################################################################
#
#                 Cambridge Crystallographic Data Centre
#                                CCDC 
#
#######################################################################
#
# If this CIF has been generated from an entry in the Cambridge 
# Structural Database, then it will include bibliographic, chemical, 
# crystal, experimental, refinement or atomic coordinate data resulting 
# from the CCDC's data processing and validation procedures.
#
#######################################################################

data_ZEWDIQ
_chemical_formula_moiety         'C20 H18 O1'
_chemical_name_systematic        
9-Methoxy-4-(2-naphthyl)tricyclo[3.3.1.0^2,8^]nona-3,6-diene
_symmetry_cell_setting           orthorhombic
_symmetry_space_group_name_H-M   'P c a 21'
_symmetry_Int_Tables_number      29
_space_group_name_Hall           'P 2c -2ac'
loop_
_symmetry_equiv_pos_site_id
_symmetry_equiv_pos_as_xyz
1 x,y,z
2 -x,-y,1/2+z
3 1/2+x,-y,z
4 1/2-x,y,1/2+z
_cell_length_a                   15.006(4)
_cell_length_b                   15.379(5)
_cell_length_c                   6.095(3)
_cell_angle_alpha                90
_cell_angle_beta                 90
_cell_angle_gamma                90
_cell_volume                     1406.59
_exptl_crystal_colour            colorless
_exptl_crystal_description       plate
_cell_formula_units_Z            4
loop_
_atom_site_label
_atom_site_type_symbol
_atom_site_fract_x
_atom_site_fract_y
_atom_site_fract_z
C1 C 0.6656(3) 0.8538(3) 0.1655(9)
H1 H 0.6629 0.7950 0.2270
H2 H 0.7189 0.8835 0.2208
H3 H 0.6684 0.8503 0.0051
C2 C 0.5085(2) 0.8674(3) 0.1277(8)
H4 H 0.5216 0.8512 -0.0279
C3 C 0.4729(2) 0.7868(3) 0.2517(7)
H5 H 0.5193 0.7402 0.2555
C4 C 0.4439(3) 0.8096(3) 0.4819(8)
H6 H 0.4575 0.7722 0.6014
C5 C 0.3989(3) 0.8834(3) 0.5140(7)
H7 H 0.3777 0.8972 0.6567
C6 C 0.3819(3) 0.9428(3) 0.3342(8)
H8 H 0.3608 1.0020 0.3777
C7 C 0.4401(3) 0.9396(3) 0.1319(8)
H9 H 0.4563 0.9960 0.0608
C8 C 0.3450(3) 0.9080(3) 0.1076(8)
H10 H 0.3038 0.9480 0.0276
C9 C 0.3300(3) 0.8152(3) 0.0718(7)
H11 H 0.2760 0.7972 0.0048
C10 C 0.3897(2) 0.7546(3) 0.1298(7)
C11 C 0.3775(3) 0.6611(3) 0.0895(9)
C12 C 0.3368(3) 0.6327(3) -0.1113(7)
H12 H 0.3170 0.6748 -0.2144
C13 C 0.3261(3) 0.5466(3) -0.1569(8)
H13 H 0.3001 0.5300 -0.2927
C14 C 0.3530(3) 0.4807(3) -0.0059(7)
C15 C 0.3403(3) 0.3906(3) -0.0465(8)
H14 H 0.3138 0.3721 -0.1801
C16 C 0.3660(3) 0.3308(3) 0.1052(9)
H15 H 0.3567 0.2707 0.0770
C17 C 0.4060(3) 0.3567(3) 0.3025(8)
H16 H 0.4236 0.3141 0.4069
C18 C 0.4198(3) 0.4424(3) 0.3452(8)
H17 H 0.4476 0.4588 0.4790
C19 C 0.3939(3) 0.5076(3) 0.1956(7)
C20 C 0.4057(3) 0.5987(3) 0.2348(8)
H18 H 0.4343 0.6166 0.3664
O1 O 0.58835(18) 0.90095(19) 0.2288(6)
loop_
_geom_bond_atom_site_label_1
_geom_bond_atom_site_label_2
_geom_bond_site_symmetry_1
_geom_bond_site_symmetry_2
C1 H1 1_555 1_555
H2 C1 1_555 1_555
H3 C1 1_555 1_555
C2 H4 1_555 1_555
C3 C2 1_555 1_555
H5 C3 1_555 1_555
C4 C3 1_555 1_555
H6 C4 1_555 1_555
C5 C4 1_555 1_555
H7 C5 1_555 1_555
C6 C5 1_555 1_555
H8 C6 1_555 1_555
C7 C2 1_555 1_555
H9 C7 1_555 1_555
C8 C6 1_555 1_555
H10 C8 1_555 1_555
C9 C8 1_555 1_555
H11 C9 1_555 1_555
C10 C3 1_555 1_555
C11 C10 1_555 1_555
C12 C11 1_555 1_555
H12 C12 1_555 1_555
C13 C12 1_555 1_555
H13 C13 1_555 1_555
C14 C13 1_555 1_555
C15 C14 1_555 1_555
H14 C15 1_555 1_555
C16 C15 1_555 1_555
H15 C16 1_555 1_555
C17 C16 1_555 1_555
H16 C17 1_555 1_555
C18 C17 1_555 1_555
H17 C18 1_555 1_555
C19 C14 1_555 1_555
C20 C11 1_555 1_555
H18 C20 1_555 1_555
O1 C1 1_555 1_555
C2 O1 1_555 1_555
C6 C7 1_555 1_555
C7 C8 1_555 1_555
C9 C10 1_555 1_555
C18 C19 1_555 1_555
C19 C20 1_555 1_555

#END
