
#######################################################################
#
#                 Cambridge Crystallographic Data Centre
#                                CCDC 
#
#######################################################################
#
# If this CIF has been generated from an entry in the Cambridge 
# Structural Database, then it will include bibliographic, chemical, 
# crystal, experimental, refinement or atomic coordinate data resulting 
# from the CCDC's data processing and validation procedures.
#
#######################################################################

data_ZEWJET
_chemical_formula_moiety         'C22 H27 N1 O2 S1'
_chemical_name_systematic        
4-methyl-N-(4a-methyl-1,2,3,4,4a,9,10,10a-octahydrophenanthren-1-yl)benzene-1-sulfonamide
_symmetry_cell_setting           triclinic
_symmetry_space_group_name_H-M   'P -1'
_symmetry_Int_Tables_number      2
_space_group_name_Hall           '-P 1'
loop_
_symmetry_equiv_pos_site_id
_symmetry_equiv_pos_as_xyz
1 x,y,z
2 -x,-y,-z
_cell_length_a                   8.2324(3)
_cell_length_b                   9.6813(5)
_cell_length_c                   13.7595(7)
_cell_angle_alpha                78.344(4)
_cell_angle_beta                 83.868(4)
_cell_angle_gamma                70.534(4)
_cell_volume                     1011.7
_exptl_crystal_colour            colorless
_exptl_crystal_description       needle
_cell_formula_units_Z            2
loop_
_atom_site_label
_atom_site_type_symbol
_atom_site_fract_x
_atom_site_fract_y
_atom_site_fract_z
S1 S 0.49556(7) 0.72638(6) 0.53883(4)
O1 O 0.4838(2) 0.70262(18) 0.44049(12)
O2 O 0.5960(2) 0.81338(19) 0.55485(15)
N1 N 0.5730(2) 0.5624(2) 0.60310(14)
H1 H 0.5952 0.4867 0.5743
C1 C 0.2847(3) 0.8054(2) 0.58580(17)
C2 C 0.1473(3) 0.7826(2) 0.54918(18)
H2 H 0.1652 0.7303 0.4972
C3 C -0.0154(3) 0.8377(3) 0.58991(19)
H3 H -0.1074 0.8232 0.5643
C4 C 0.7899(3) 0.4287(2) 0.72829(16)
H4 H 0.7923 0.3345 0.7113
C5 C 0.6075(3) 0.5367(3) 0.70946(17)
H5 H 0.5996 0.6318 0.7274
C6 C -0.0460(3) 0.9138(2) 0.6677(2)
C7 C 0.9291(3) 0.4766(3) 0.66261(19)
H6 H 0.8950 0.5058 0.5942
H7 H 0.9437 0.5617 0.6831
C8 C 0.8325(3) 0.3945(3) 0.83912(17)
C9 C 1.1365(3) 0.2636(3) 0.77355(19)
C10 C 0.2563(3) 0.8848(3) 0.6621(2)
H8 H 0.3475 0.9036 0.6854
C11 C 1.0130(3) 0.2803(3) 0.85179(19)
C12 C 0.0939(3) 0.9357(3) 0.7036(2)
H9 H 0.0765 0.9859 0.7567
C13 C 1.0977(3) 0.3494(3) 0.6704(2)
H10 H 1.0952 0.2813 0.6281
H11 H 1.1908 0.3891 0.6452
C14 C 0.4737(3) 0.4778(3) 0.77141(19)
H12 H 0.3612 0.5528 0.7624
H13 H 0.4705 0.3906 0.7482
C15 C 0.6928(3) 0.3327(3) 0.89867(19)
H14 H 0.7039 0.2381 0.8806
H15 H 0.7131 0.3146 0.9690
C16 C 1.3001(3) 0.1618(3) 0.7902(2)
H16 H 1.3822 0.1521 0.7379
C17 C 0.8341(4) 0.5332(3) 0.8769(2)
H17 H 0.7223 0.6073 0.8700
H18 H 0.8622 0.5064 0.9456
H19 H 0.9186 0.5723 0.8387
C18 C 0.5104(4) 0.4369(4) 0.8806(2)
H20 H 0.4292 0.3893 0.9160
H21 H 0.4940 0.5268 0.9067
C19 C -0.2247(3) 0.9703(3) 0.7137(2)
H22 H -0.2213 1.0204 0.7666
H23 H -0.3002 1.0385 0.6642
H24 H -0.2664 0.8880 0.7396
C20 C 1.3444(4) 0.0754(4) 0.8812(3)
H25 H 1.4542 0.0067 0.8903
C21 C 1.0610(4) 0.1926(4) 0.9441(2)
H26 H 0.9809 0.2023 0.9974
C22 C 1.2246(5) 0.0917(4) 0.9585(3)
H27 H 1.2533 0.0346 1.0210
loop_
_geom_bond_atom_site_label_1
_geom_bond_atom_site_label_2
_geom_bond_site_symmetry_1
_geom_bond_site_symmetry_2
S1 O1 1_555 1_555
O2 S1 1_555 1_555
N1 S1 1_555 1_555
H1 N1 1_555 1_555
C1 S1 1_555 1_555
C2 C1 1_555 1_555
H2 C2 1_555 1_555
C3 C2 1_555 1_555
H3 C3 1_555 1_555
C4 H4 1_555 1_555
C5 N1 1_555 1_555
H5 C5 1_555 1_555
C6 C3 1_555 1_555
C7 C4 1_555 1_555
H6 C7 1_555 1_555
H7 C7 1_555 1_555
C8 C4 1_555 1_555
C9 C11 1_555 1_555
C10 C1 1_555 1_555
H8 C10 1_555 1_555
C11 C8 1_555 1_555
C12 C6 1_555 1_555
H9 C12 1_555 1_555
C13 C7 1_555 1_555
H10 C13 1_555 1_555
H11 C13 1_555 1_555
C14 C5 1_555 1_555
H12 C14 1_555 1_555
H13 C14 1_555 1_555
C15 C8 1_555 1_555
H14 C15 1_555 1_555
H15 C15 1_555 1_555
C16 C9 1_555 1_555
H16 C16 1_555 1_555
C17 C8 1_555 1_555
H17 C17 1_555 1_555
H18 C17 1_555 1_555
H19 C17 1_555 1_555
C18 C14 1_555 1_555
H20 C18 1_555 1_555
H21 C18 1_555 1_555
C19 C6 1_555 1_555
H22 C19 1_555 1_555
H23 C19 1_555 1_555
H24 C19 1_555 1_555
C20 C16 1_555 1_555
H25 C20 1_555 1_555
C21 C11 1_555 1_555
H26 C21 1_555 1_555
C22 C20 1_555 1_555
H27 C22 1_555 1_555
C4 C5 1_555 1_555
C9 C13 1_555 1_555
C10 C12 1_555 1_555
C15 C18 1_555 1_555
C21 C22 1_555 1_555

#END
