
#######################################################################
#
#                 Cambridge Crystallographic Data Centre
#                                CCDC 
#
#######################################################################
#
# If this CIF has been generated from an entry in the Cambridge 
# Structural Database, then it will include bibliographic, chemical, 
# crystal, experimental, refinement or atomic coordinate data resulting 
# from the CCDC's data processing and validation procedures.
#
#######################################################################

data_ZEWQIB
_chemical_formula_moiety         'C40 H39 N2 O2 S1 1+,N1 O3 1-'
_chemical_name_systematic        
'3,9-bis(Diphenylmethyl)-6-phenylsulfonyl-2-azonia-7-azabicyclo(4.4.0)decene nitrate unknown solvate'
_symmetry_cell_setting           triclinic
_symmetry_space_group_name_H-M   'P 1'
_symmetry_Int_Tables_number      1
_space_group_name_Hall           'P 1'
loop_
_symmetry_equiv_pos_site_id
_symmetry_equiv_pos_as_xyz
1 x,y,z
_cell_length_a                   12.258(5)
_cell_length_b                   12.360(6)
_cell_length_c                   14.964(8)
_cell_angle_alpha                113.07(2)
_cell_angle_beta                 113.63(2)
_cell_angle_gamma                90.01(3)
_cell_volume                     1877.42
_chemical_melting_point          115-116deg.C
_cell_formula_units_Z            2
loop_
_atom_site_label
_atom_site_type_symbol
_atom_site_fract_x
_atom_site_fract_y
_atom_site_fract_z
S1 S 0.7148 0.8352 0.3543
O1 O 0.8040(12) 0.8852(12) 0.3341(11)
O2 O 0.6571(12) 0.7085(11) 0.2882(12)
N1 N 0.9843(16) 0.8047(13) 0.5089(14)
N2 N 0.8430(14) 0.6665(13) 0.4937(13)
C1 C 0.7917(15) 0.8645(14) 0.4993(13)
C2 C 0.6997(18) 0.8314(18) 0.5333(18)
C3 C 0.6388(16) 0.7026(16) 0.4817(18)
C4 C 0.7333(17) 0.6250(18) 0.4950(17)
C5 C 0.8712(18) 0.7714(20) 0.4982(15)
C6 C 1.0340(15) 0.9280(14) 0.5318(15)
C7 C 0.9949(17) 1.0101(16) 0.6139(16)
C8 C 0.8588(15) 0.9946(15) 0.5659(15)
C9 C 0.4838(11) 0.8704(9) 0.3247(11)
C10 C 0.3941(9) 0.9384(11) 0.3174(11)
C11 C 0.4195(11) 1.0550(11) 0.3303(12)
C12 C 0.5346(12) 1.1037(9) 0.3505(12)
C13 C 0.6243(10) 1.0357(11) 0.3578(11)
C14 C 0.5989(10) 0.9190(10) 0.3448(10)
C15 C 0.6829(15) 0.4902(16) 0.4084(14)
C16 C 0.8432(13) 0.4025(12) 0.5209(9)
C17 C 0.9168(13) 0.3182(14) 0.5222(10)
C18 C 0.9156(13) 0.2366(13) 0.4261(12)
C19 C 0.8408(14) 0.2692(12) 0.3287(10)
C20 C 0.7671(12) 0.3235(13) 0.3275(9)
C21 C 0.7683(12) 0.4052(12) 0.4236(11)
C22 C 0.5607(11) 0.4516(12) 0.5069(9)
C23 C 0.4526(13) 0.4065(14) 0.5016(10)
C24 C 0.3484(11) 0.3563(14) 0.4033(12)
C25 C 0.3524(11) 0.3513(14) 0.3103(10)
C26 C 0.4605(13) 0.3965(13) 0.3155(9)
C27 C 0.5646(10) 0.4466(12) 0.4138(11)
C28 C 1.1767(15) 0.9406(14) 0.5838(14)
C29 C 1.2060(11) 1.1189(11) 0.5431(8)
C30 C 1.2594(13) 1.2370(11) 0.5777(10)
C31 C 1.3458(2) 1.3033(9) 0.6843(10)
C32 C 1.3787(11) 1.2517(11) 0.7564(8)
C33 C 1.3252(12) 1.1336(11) 0.7218(9)
C34 C 1.2389(12) 1.0673(9) 0.6151(10)
C35 C 1.3007(12) 0.7826(12) 0.5482(9)
C36 C 1.3339(12) 0.6915(12) 0.4796(11)
C37 C 1.2832(14) 0.6632(13) 0.3698(11)
C38 C 1.1992(14) 0.7260(14) 0.3286(9)
C39 C 1.1660(12) 0.8170(13) 0.3972(11)
C40 C 1.2167(12) 0.8453(11) 0.5070(10)
H1 H 0.7405(18) 0.8575(18) 0.6110(18)
H2 H 0.6368(18) 0.8776(18) 0.5194(18)
H3 H 0.5870(16) 0.6775(16) 0.4052(18)
H4 H 0.5881(16) 0.6927(16) 0.5149(18)
H5 H 0.7571(17) 0.6254(18) 0.5660(17)
H6 H 1.0037(15) 0.9409(14) 0.4661(15)
H7 H 1.0235(17) 0.9923(16) 0.6762(16)
H8 H 1.0312(17) 1.0929(16) 0.6384(16)
H9 H 0.8336(15) 1.0364(15) 0.5203(15)
H10 H 0.8355(15) 1.0319(15) 0.6241(15)
H11 H 0.4640(15) 0.7793(10) 0.3146(16)
H12 H 0.3043(10) 0.9004(16) 0.3017(17)
H13 H 0.3495(14) 1.1081(15) 0.3247(18)
H14 H 0.5544(17) 1.1948(10) 0.3606(17)
H15 H 0.7141(11) 1.0737(15) 0.3735(16)
H16 H 0.6601(15) 0.4868(15) 0.3373(14)
H17 H 0.8441(19) 0.4662(16) 0.5960(10)
H18 H 0.9752(18) 0.3161(20) 0.5982(12)
H19 H 0.9731(19) 0.1707(17) 0.4270(17)
H20 H 0.8398(20) 0.1755(16) 0.2537(12)
H21 H 0.7087(17) 0.3256(19) 0.2515(10)
H22 H 0.6420(13) 0.4907(18) 0.5836(10)
H23 H 0.4495(18) 0.4104(21) 0.5743(12)
H24 H 0.2640(13) 0.3211(21) 0.3993(17)
H25 H 0.2711(13) 0.3122(20) 0.2336(12)
H26 H 0.4636(18) 0.3925(20) 0.2429(11)
H27 H 1.2014(15) 0.9292(14) 0.6488(14)
H28 H 1.1385(15) 1.0671(14) 0.4599(9)
H29 H 1.2337(18) 1.2773(15) 0.5215(13)
H30 H 1.3875(18) 1.3955(10) 0.7113(14)
H31 H 1.4462(6) 1.3035(14) 0.8396(9)
H32 H 1.3510(17) 1.0935(15) 0.7780(12)
H33 H 1.3402(17) 0.8047(18) 0.6339(9)
H34 H 1.3995(17) 0.6425(17) 0.5117(16)
H35 H 1.3092(21) 0.5921(17) 0.3162(14)
H36 H 1.1596(20) 0.7039(21) 0.2429(9)
H37 H 1.1004(17) 0.8660(18) 0.3651(15)
S2 S 1.2432(5) 0.4802(5) 1.0504(5)
O3 O 1.2979(14) 0.5961(12) 1.1344(11)
O4 O 1.1506(14) 0.4086(14) 1.0497(13)
N3 N 0.9806(14) 0.5461(13) 0.9058(13)
N4 N 1.1380(14) 0.6964(15) 0.9691(15)
C41 C 1.1790(16) 0.4915(17) 0.9214(15)
C42 C 1.1079(18) 0.3711(16) 0.8216(16)
C43 C 0.9903(19) 0.3277(19) 0.8186(18)
C44 C 0.9095(16) 0.4207(15) 0.8362(17)
C45 C 1.1001(19) 0.5789(17) 0.9357(16)
C46 C 1.2653(18) 0.7570(17) 1.0006(20)
C47 C 1.3529(17) 0.6743(16) 0.9975(20)
C48 C 1.2854(17) 0.5463(19) 0.9081(16)
C49 C 1.3311(9) 0.2736(11) 1.0006(11)
C50 C 1.4237(12) 0.2111(9) 0.9972(11)
C51 C 1.5415(11) 0.2734(12) 1.0389(12)
C52 C 1.5666(10) 0.3982(12) 1.0838(12)
C53 C 1.4739(12) 0.4607(9) 1.0871(11)
C54 C 1.3561(11) 0.3984(11) 1.0455(11)
C55 C 0.8313(17) 0.3911(16) 0.8821(15)
C56 C 0.7284(14) 0.1895(14) 0.8415(10)
C57 C 0.6432(16) 0.0822(13) 0.7732(14)
C58 C 0.5698(14) 0.0572(12) 0.6658(13)
C59 C 0.5816(14) 0.1396(14) 0.6266(9)
C60 C 0.6668(14) 0.2470(13) 0.6949(11)
C61 C 0.7402(12) 0.2719(11) 0.8024(10)
C62 C 0.8220(14) 0.5572(16) 1.0382(11)
C63 C 0.7694(19) 0.6495(16) 1.0827(11)
C64 C 0.6684(18) 0.6764(15) 1.0154(17)
C65 C 0.6200(15) 0.6109(18) 0.9036(16)
C66 C 0.6726(15) 0.5186(16) 0.8592(11)
C67 C 0.7736(14) 0.4917(13) 0.9265(12)
C68 C 1.2504(15) 0.8275(15) 0.9295(13)
C69 C 1.1889(12) 1.0042(14) 1.0472(9)
C70 C 1.1142(15) 1.0873(13) 1.0565(10)
C71 C 1.0170(14) 1.0818(13) 0.9643(13)
C72 C 0.9946(12) 0.9931(15) 0.8628(11)
C73 C 1.0693(14) 0.9100(13) 0.8536(9)
C74 C 1.1664(12) 0.9156(12) 0.9458(11)
C75 C 1.4639(12) 0.9514(12) 1.0567(9)
C76 C 1.5790(11) 0.9947(13) 1.0731(10)
C77 C 1.6046(11) 0.9675(15) 0.9851(13)
C78 C 1.5151(14) 0.8968(15) 0.8807(11)
C79 C 1.4000(12) 0.8535(13) 0.8644(9)
C80 C 1.3745(10) 0.8807(12) 0.9523(11)
H38 H 1.0904(18) 0.3809(16) 0.7563(16)
H39 H 1.1579(8) 0.3111(16) 0.8231(16)
H40 H 1.0095(19) 0.2987(19) 0.8736(18)
H41 H 0.9433(19) 0.2598(19) 0.7489(18)
H42 H 0.8554(16) 0.4162(15) 0.7651(17)
H43 H 1.2970(18) 0.8176(17) 1.0759(20)
H44 H 1.3925(17) 0.6721(16) 1.0672(20)
H45 H 1.4150(17) 0.7039(16) 0.9833(20)
H46 H 1.3435(17) 0.4939(19) 0.9088(16)
H47 H 1.2523(17) 0.5484(19) 0.8382(16)
H48 H 1.2391(11) 0.2250(14) 0.9681(16)
H49 H 1.4041(17) 0.1137(9) 0.9622(17)
H50 H 1.6138(13) 0.2246(16) 1.0363(18)
H51 H 1.6585(11) 0.4468(16) 1.1163(18)
H52 H 1.4935(17) 0.5581(9) 1.1222(17)
H53 H 0.8855(16) 0.3787(15) 0.9431(15)
H54 H 0.7856(20) 0.2089(21) 0.9254(11)
H55 H 0.6340(24) 0.0178(18) 0.8038(19)
H56 H 0.5033(19) -0.0265(15) 0.6125(17)
H57 H 0.5243(20) 0.1202(21) 0.5428(10)
H58 H 0.6760(21) 0.3113(17) 0.6644(16)
H59 H 0.9008(19) 0.5362(24) 1.0907(16)
H60 H 0.8072(27) 0.7006(24) 1.1699(12)
H61 H 0.6274(26) 0.7485(20) 1.0501(24)
H62 H 0.5412(20) 0.6319(26) 0.8511(22)
H63 H 0.6348(23) 0.4675(24) 0.7720(10)
H64 H 1.2120(14) 0.7694(14) 0.8550(14)
H65 H 1.2647(17) 1.0085(20) 1.1191(11)
H66 H 1.1317(22) 1.1565(18) 1.1356(12)
H67 H 0.9587(19) 1.1466(18) 0.9715(19)
H68 H 0.9187(16) 0.9888(21) 0.7909(13)
H69 H 1.0517(20) 0.8408(17) 0.7744(10)
H70 H 1.4440(17) 0.9727(19) 1.1254(11)
H71 H 1.6489(14) 1.0499(18) 1.1546(11)
H72 H 1.6944(13) 1.0013(21) 0.9979(18)
H73 H 1.5351(20) 0.8755(21) 0.8120(13)
H74 H 1.3302(16) 0.7983(18) 0.7829(9)
N5 N 0.8234(19) 0.7326(21) 0.8194(18)
O5 O 0.8927(14) 0.7613(14) 0.9219(13)
O6 O 0.7526(21) 0.8056(20) 0.8098(18)
O7 O 0.8208(18) 0.6454(20) 0.7532(18)
N6 N 0.1219(27) 0.5855(26) 0.5750(26)
O8 O 0.0611(20) 0.5785(19) 0.4981(18)
O9 O 0.2063(30) 0.5310(29) 0.6058(26)
O10 O 0.1092(31) 0.6367(31) 0.6527(29)
N7 N 0.9903(35) 0.9331(36) 0.1729(32)
O11 O 1.0265(33) 1.0145(35) 0.2508(32)
O12 O 0.9022(20) 0.9437(19) 0.0940(18)
O13 O 1.0584(28) 0.8665(28) 0.1554(24)
C81? C 0.9536(45) 0.3713(44) 0.1998(40)
C82? C 0.8925(44) 0.2937(47) 0.1359(41)
C83? C 1.0403(44) 0.4167(44) 0.2963(41)
loop_
_geom_bond_atom_site_label_1
_geom_bond_atom_site_label_2
_geom_bond_site_symmetry_1
_geom_bond_site_symmetry_2
S1 O1 1_555 1_555
O2 S1 1_555 1_555
N1 C5 1_555 1_555
N2 C4 1_555 1_555
C1 S1 1_555 1_555
C2 C1 1_555 1_555
C3 C2 1_555 1_555
C4 C3 1_555 1_555
C5 N2 1_555 1_555
C6 N1 1_555 1_555
C7 C6 1_555 1_555
C8 C1 1_555 1_555
C9 C10 1_555 1_555
C10 C11 1_555 1_555
C11 C12 1_555 1_555
C12 C13 1_555 1_555
C13 C14 1_555 1_555
C14 S1 1_555 1_555
C15 C4 1_555 1_555
C16 C17 1_555 1_555
C17 C18 1_555 1_555
C18 C19 1_555 1_555
C19 C20 1_555 1_555
C20 C21 1_555 1_555
C21 C15 1_555 1_555
C22 C23 1_555 1_555
C23 C24 1_555 1_555
C24 C25 1_555 1_555
C25 C26 1_555 1_555
C26 C27 1_555 1_555
C27 C15 1_555 1_555
C28 C6 1_555 1_555
C29 C30 1_555 1_555
C30 C31 1_555 1_555
C31 C32 1_555 1_555
C32 C33 1_555 1_555
C33 C34 1_555 1_555
C34 C28 1_555 1_555
C35 C36 1_555 1_555
C36 C37 1_555 1_555
C37 C38 1_555 1_555
C38 C39 1_555 1_555
C39 C40 1_555 1_555
C40 C28 1_555 1_555
S2 O3 1_555 1_555
O4 S2 1_555 1_555
N3 C44 1_555 1_555
N4 C45 1_555 1_555
C41 S2 1_555 1_555
C42 C41 1_555 1_555
C43 C42 1_555 1_555
C44 C43 1_555 1_555
C45 N3 1_555 1_555
C46 N4 1_555 1_555
C47 C46 1_555 1_555
C48 C41 1_555 1_555
C49 C50 1_555 1_555
C50 C51 1_555 1_555
C51 C52 1_555 1_555
C52 C53 1_555 1_555
C53 C54 1_555 1_555
C54 S2 1_555 1_555
C55 C44 1_555 1_555
C56 C57 1_555 1_555
C57 C58 1_555 1_555
C58 C59 1_555 1_555
C59 C60 1_555 1_555
C60 C61 1_555 1_555
C61 C55 1_555 1_555
C62 C63 1_555 1_555
C63 C64 1_555 1_555
C64 C65 1_555 1_555
C65 C66 1_555 1_555
C66 C67 1_555 1_555
C67 C55 1_555 1_555
C68 C46 1_555 1_555
C69 C70 1_555 1_555
C70 C71 1_555 1_555
C71 C72 1_555 1_555
C72 C73 1_555 1_555
C73 C74 1_555 1_555
C74 C68 1_555 1_555
C75 C76 1_555 1_555
C76 C77 1_555 1_555
C77 C78 1_555 1_555
C78 C79 1_555 1_555
C79 C80 1_555 1_555
C80 C68 1_555 1_555
N5 O5 1_555 1_555
O6 N5 1_555 1_555
O7 N5 1_555 1_555
N6 O8 1_555 1_555
O9 N6 1_555 1_555
O10 N6 1_555 1_555
N7 O11 1_555 1_555
O12 N7 1_555 1_555
O13 N7 1_555 1_555
H1 C2 1_555 1_555
H2 C2 1_555 1_555
H3 C3 1_555 1_555
H4 C3 1_555 1_555
H5 C4 1_555 1_555
H6 C6 1_555 1_555
H7 C7 1_555 1_555
H8 C7 1_555 1_555
H9 C8 1_555 1_555
H10 C8 1_555 1_555
H11 C9 1_555 1_555
H12 C10 1_555 1_555
H13 C11 1_555 1_555
H14 C12 1_555 1_555
H15 C13 1_555 1_555
H16 C15 1_555 1_555
H17 C16 1_555 1_555
H18 C17 1_555 1_555
H19 C18 1_555 1_555
H20 C19 1_555 1_555
H21 C20 1_555 1_555
H22 C22 1_555 1_555
H23 C23 1_555 1_555
H24 C24 1_555 1_555
H25 C25 1_555 1_555
H26 C26 1_555 1_555
H27 C28 1_555 1_555
H28 C29 1_555 1_555
H29 C30 1_555 1_555
H30 C31 1_555 1_555
H31 C32 1_555 1_555
H32 C33 1_555 1_555
H33 C35 1_555 1_555
H34 C36 1_555 1_555
H35 C37 1_555 1_555
H36 C38 1_555 1_555
H37 C39 1_555 1_555
H38 C42 1_555 1_555
H39 C42 1_555 1_555
H40 C43 1_555 1_555
H41 C43 1_555 1_555
H42 C44 1_555 1_555
H43 C46 1_555 1_555
H44 C47 1_555 1_555
H45 C47 1_555 1_555
H46 C48 1_555 1_555
H47 C48 1_555 1_555
H48 C49 1_555 1_555
H49 C50 1_555 1_555
H50 C51 1_555 1_555
H51 C52 1_555 1_555
H52 C53 1_555 1_555
H53 C55 1_555 1_555
H54 C56 1_555 1_555
H55 C57 1_555 1_555
H56 C58 1_555 1_555
H57 C59 1_555 1_555
H58 C60 1_555 1_555
H59 C62 1_555 1_555
H60 C63 1_555 1_555
H61 C64 1_555 1_555
H62 C65 1_555 1_555
H63 C66 1_555 1_555
H64 C68 1_555 1_555
H65 C69 1_555 1_555
H66 C70 1_555 1_555
H67 C71 1_555 1_555
H68 C72 1_555 1_555
H69 C73 1_555 1_555
H70 C75 1_555 1_555
H71 C76 1_555 1_555
H72 C77 1_555 1_555
H73 C78 1_555 1_555
H74 C79 1_555 1_555
C1 C5 1_555 1_555
C7 C8 1_555 1_555
C9 C14 1_555 1_555
C16 C21 1_555 1_555
C22 C27 1_555 1_555
C29 C34 1_555 1_555
C35 C40 1_555 1_555
C41 C45 1_555 1_555
C47 C48 1_555 1_555
C49 C54 1_555 1_555
C56 C61 1_555 1_555
C62 C67 1_555 1_555
C69 C74 1_555 1_555
C75 C80 1_555 1_555

#END
