
#######################################################################
#
#                 Cambridge Crystallographic Data Centre
#                                CCDC 
#
#######################################################################
#
# If this CIF has been generated from an entry in the Cambridge 
# Structural Database, then it will include bibliographic, chemical, 
# crystal, experimental, refinement or atomic coordinate data resulting 
# from the CCDC's data processing and validation procedures.
#
#######################################################################

data_ZEYNID
_chemical_formula_moiety         'C6 H8 N2,C7 H6 O4'
_chemical_name_systematic        
'2,3-dimethylpyrazine 2,3-dihydroxybenzoic acid'
_symmetry_cell_setting           monoclinic
_symmetry_space_group_name_H-M   'C 2/c'
_symmetry_Int_Tables_number      15
_space_group_name_Hall           '-C 2yn'
loop_
_symmetry_equiv_pos_site_id
_symmetry_equiv_pos_as_xyz
1 x,y,z
2 -x,y,1/2-z
3 1/2+x,1/2+y,z
4 1/2-x,1/2+y,1/2-z
5 -x,-y,-z
6 x,-y,1/2+z
7 1/2-x,1/2-y,-z
8 1/2+x,1/2-y,1/2+z
_cell_length_a                   12.512(5)
_cell_length_b                   8.5513(16)
_cell_length_c                   23.861(5)
_cell_angle_alpha                90
_cell_angle_beta                 91.833(18)
_cell_angle_gamma                90
_cell_volume                     2551.67
_exptl_crystal_colour            colorless
_exptl_crystal_description       schistose
_cell_formula_units_Z            8
loop_
_atom_site_label
_atom_site_type_symbol
_atom_site_fract_x
_atom_site_fract_y
_atom_site_fract_z
O1 O 0.06626(13) 0.06585(15) 0.58960(6)
H1 H 0.0398 0.0670 0.5577
O2 O -0.12308(14) 0.41585(17) 0.51553(6)
H2 H -0.1528 0.3921 0.4856
O3 O 0.14984(14) 0.10387(16) 0.69226(6)
H3 H 0.1653 0.1235 0.7252
C1 C -0.01117(15) 0.3253(2) 0.58954(8)
O4 O -0.04675(12) 0.18238(17) 0.50529(6)
C2 C 0.07990(16) 0.3656(2) 0.69595(8)
H4 H 0.1109 0.3805 0.7315
C3 C -0.02480(17) 0.4650(2) 0.61816(9)
H5 H -0.0648 0.5452 0.6016
C4 C 0.04886(15) 0.2045(2) 0.61458(8)
C5 C 0.09340(15) 0.2259(2) 0.66910(8)
C6 C -0.06071(16) 0.3003(2) 0.53272(9)
C7 C 0.02056(17) 0.4854(2) 0.67091(8)
H6 H 0.0115 0.5793 0.6898
N1 N 0.30570(13) -0.36879(18) 0.69202(7)
N2 N 0.22379(13) -0.37851(19) 0.58317(7)
C8 C 0.32376(15) -0.4914(2) 0.65932(8)
C9 C 0.28233(15) -0.4972(2) 0.60377(8)
C10 C 0.20802(17) -0.2547(2) 0.61591(9)
H7 H 0.1687 -0.1702 0.6019
C11 C 0.38975(19) -0.6232(2) 0.68346(10)
H8 H 0.4553 -0.6311 0.6638
H9 H 0.3506 -0.7194 0.6795
H10 H 0.4055 -0.6036 0.7225
C12 C 0.24885(17) -0.2505(2) 0.66966(9)
H11 H 0.2367 -0.1624 0.6914
C13 C 0.3003(2) -0.6337(2) 0.56618(10)
H12 H 0.2672 -0.7250 0.5814
H13 H 0.3757 -0.6517 0.5634
H14 H 0.2697 -0.6123 0.5296
loop_
_geom_bond_atom_site_label_1
_geom_bond_atom_site_label_2
_geom_bond_site_symmetry_1
_geom_bond_site_symmetry_2
O1 H1 1_555 1_555
O2 H2 1_555 1_555
O3 H3 1_555 1_555
C1 C3 1_555 1_555
O4 C6 1_555 1_555
C2 H4 1_555 1_555
C3 H5 1_555 1_555
C4 O1 1_555 1_555
C5 O3 1_555 1_555
C6 O2 1_555 1_555
C7 C2 1_555 1_555
H6 C7 1_555 1_555
N1 C8 1_555 1_555
N2 C9 1_555 1_555
C8 C9 1_555 1_555
C9 C13 1_555 1_555
C10 N2 1_555 1_555
H7 C10 1_555 1_555
C11 C8 1_555 1_555
H8 C11 1_555 1_555
H9 C11 1_555 1_555
H10 C11 1_555 1_555
C12 N1 1_555 1_555
H11 C12 1_555 1_555
C13 H12 1_555 1_555
H13 C13 1_555 1_555
H14 C13 1_555 1_555
C1 C4 1_555 1_555
C1 C6 1_555 1_555
C2 C5 1_555 1_555
C3 C7 1_555 1_555
C4 C5 1_555 1_555
C10 C12 1_555 1_555

#END
