
#######################################################################
#
#                 Cambridge Crystallographic Data Centre
#                                CCDC 
#
#######################################################################
#
# If this CIF has been generated from an entry in the Cambridge 
# Structural Database, then it will include bibliographic, chemical, 
# crystal, experimental, refinement or atomic coordinate data resulting 
# from the CCDC's data processing and validation procedures.
#
#######################################################################

data_ZEYNUP
_chemical_formula_moiety         'C6 H8 N2,C8 H4 Cl2 O4'
_chemical_name_systematic        
'2,3-dimethylpyrazine 4,5-dichlorophthalic acid'
_symmetry_cell_setting           triclinic
_symmetry_space_group_name_H-M   'P -1'
_symmetry_Int_Tables_number      2
_space_group_name_Hall           '-P 1'
loop_
_symmetry_equiv_pos_site_id
_symmetry_equiv_pos_as_xyz
1 x,y,z
2 -x,-y,-z
_cell_length_a                   7.7657(6)
_cell_length_b                   8.3679(7)
_cell_length_c                   12.4487(10)
_cell_angle_alpha                83.769(7)
_cell_angle_beta                 79.174(7)
_cell_angle_gamma                71.889(7)
_cell_volume                     754.096
_exptl_crystal_colour            colorless
_exptl_crystal_description       block
_cell_formula_units_Z            2
loop_
_atom_site_label
_atom_site_type_symbol
_atom_site_fract_x
_atom_site_fract_y
_atom_site_fract_z
Cl1 Cl 0.14292(11) 0.46477(10) 0.38538(6)
Cl2 Cl 0.25934(11) 0.57993(9) 0.14127(6)
C1 C 0.5759(3) -0.1306(3) 0.3134(2)
C2 C 0.5042(3) 0.0452(3) 0.26499(19)
C3 C 0.5558(3) 0.0970(3) 0.15638(19)
C4 C 0.3789(3) 0.1616(3) 0.3348(2)
H1 H 0.3465 0.1292 0.4078
C5 C 0.7036(3) -0.0187(3) 0.0815(2)
C6 C 0.4775(3) 0.2616(3) 0.1196(2)
H2 H 0.5107 0.2957 0.0471
C7 C 0.3019(3) 0.3247(3) 0.2971(2)
C8 C 0.3509(3) 0.3754(3) 0.1896(2)
O1 O 0.7155(3) 0.0399(2) -0.02098(14)
H3 H 0.8043 -0.0229 -0.0580
O2 O 0.5183(3) -0.2388(2) 0.27126(17)
H4 H 0.5727 -0.3350 0.2913
O3 O 0.6636(3) -0.1637(3) 0.38605(17)
O4 O 0.8037(3) -0.1484(3) 0.11400(16)
C9 C 1.0266(4) -0.0151(4) 0.3130(3)
H5 H 0.9372 -0.0755 0.3286
H6 H 1.0612 0.0012 0.3801
H7 H 1.1330 -0.0785 0.2658
N1 N 0.7402(3) 0.4309(3) 0.26090(18)
N2 N 1.0109(3) 0.1743(3) 0.15219(17)
C10 C 0.7326(4) 0.2636(4) 0.4321(2)
H8 H 0.8276 0.2498 0.4749
H9 H 0.6894 0.1664 0.4445
H10 H 0.6327 0.3619 0.4533
C11 C 0.8065(4) 0.4492(4) 0.1554(2)
H11 H 0.7604 0.5510 0.1172
C12 C 0.9464(3) 0.1520(3) 0.2577(2)
C13 C 0.8078(3) 0.2835(3) 0.3130(2)
C14 C 0.9406(4) 0.3225(4) 0.1014(2)
H12 H 0.9838 0.3401 0.0276
loop_
_geom_bond_atom_site_label_1
_geom_bond_atom_site_label_2
_geom_bond_site_symmetry_1
_geom_bond_site_symmetry_2
Cl1 C7 1_555 1_555
Cl2 C8 1_555 1_555
C1 C2 1_555 1_555
C2 C3 1_555 1_555
C3 C5 1_555 1_555
C4 C2 1_555 1_555
H1 C4 1_555 1_555
C5 O1 1_555 1_555
C6 C3 1_555 1_555
H2 C6 1_555 1_555
C7 C4 1_555 1_555
C8 C6 1_555 1_555
O1 H3 1_555 1_555
O2 C1 1_555 1_555
H4 O2 1_555 1_555
O3 C1 1_555 1_555
O4 C5 1_555 1_555
C9 H5 1_555 1_555
H6 C9 1_555 1_555
H7 C9 1_555 1_555
N1 C11 1_555 1_555
N2 C12 1_555 1_555
C10 H8 1_555 1_555
H9 C10 1_555 1_555
H10 C10 1_555 1_555
C11 H11 1_555 1_555
C12 C9 1_555 1_555
C13 N1 1_555 1_555
C14 N2 1_555 1_555
H12 C14 1_555 1_555
C7 C8 1_555 1_555
C10 C13 1_555 1_555
C11 C14 1_555 1_555
C12 C13 1_555 1_555

#END
