
#######################################################################
#
#                 Cambridge Crystallographic Data Centre
#                                CCDC 
#
#######################################################################
#
# If this CIF has been generated from an entry in the Cambridge 
# Structural Database, then it will include bibliographic, chemical, 
# crystal, experimental, refinement or atomic coordinate data resulting 
# from the CCDC's data processing and validation procedures.
#
#######################################################################

data_ZEZDEP
_chemical_formula_moiety         'C40 H50 O2 Si2'
_chemical_name_systematic        
(Furo[2',3':6,7]anthra[2,3-b]furan-5,11-diyldiethyne-2,1-diyl)bis(triisopropylsilane)
_symmetry_cell_setting           triclinic
_symmetry_space_group_name_H-M   'P -1'
_symmetry_Int_Tables_number      2
_space_group_name_Hall           '-P 1'
loop_
_symmetry_equiv_pos_site_id
_symmetry_equiv_pos_as_xyz
1 x,y,z
2 -x,-y,-z
_cell_length_a                   8.2493(4)
_cell_length_b                   10.5046(6)
_cell_length_c                   11.2428(6)
_cell_angle_alpha                69.949(3)
_cell_angle_beta                 88.797(4)
_cell_angle_gamma                80.214(4)
_cell_volume                     901.152
_exptl_crystal_colour            colorless
_exptl_crystal_description       prism
_cell_formula_units_Z            1
loop_
_atom_site_label
_atom_site_type_symbol
_atom_site_fract_x
_atom_site_fract_y
_atom_site_fract_z
Si1 Si 0.4281(3) 0.6409(2) 0.70924(19)
C1 C 0.4899(9) 0.9081(8) 0.9340(7)
C2 C 0.2331(9) 0.8520(8) 1.0375(7)
H1 H 0.2282 0.787 0.9969
C3 C -0.1090(10) 0.8891(8) 1.2303(7)
H2 H -0.2114 0.8734 1.2677
C4 C 0.2464(9) 1.0457(8) 1.1645(7)
H3 H 0.2499 1.109 1.2075
C5 C 0.3646(9) 0.9270(7) 1.0184(7)
C6 C 0.1132(9) 0.8770(8) 1.1169(7)
C7 C 0.1191(9) 0.9747(8) 1.1779(7)
C8 C 0.3731(9) 1.0212(7) 1.0839(7)
C9 C 0.4786(9) 0.8179(8) 0.8671(7)
C10 C 0.4647(10) 0.7438(8) 0.8063(7)
C11 C 0.2414(11) 0.7450(8) 0.5994(7)
H4 H 0.1436 0.7431 0.6537
C12 C 0.2065(12) 0.6804(9) 0.5022(9)
H5 H 0.1097 0.7359 0.4487
H6 H 0.1854 0.5869 0.5461
H7 H 0.3019 0.6769 0.4492
C13 C 0.2573(12) 0.8956(9) 0.5348(9)
H8 H 0.15 0.9491 0.4973
H9 H 0.3373 0.9032 0.4681
H10 H 0.2946 0.9312 0.5974
C14 C 0.6226(10) 0.6103(8) 0.6239(8)
H11 H 0.6001 0.5577 0.5687
C15 C 0.7622(11) 0.5202(10) 0.7199(9)
H12 H 0.8646 0.5111 0.6754
H13 H 0.7338 0.429 0.7627
H14 H 0.777 0.5633 0.7828
C16 C 0.6776(12) 0.7422(10) 0.5388(9)
H15 H 0.7852 0.7194 0.5055
H16 H 0.686 0.802 0.588
H17 H 0.5969 0.7899 0.4682
C17 C 0.3823(11) 0.4715(9) 0.8225(8)
H18 H 0.4759 0.4338 0.8869
C18 C 0.3781(12) 0.3629(9) 0.7605(9)
H19 H 0.3787 0.273 0.8264
H20 H 0.475 0.3584 0.7091
H21 H 0.278 0.3879 0.7062
C19 C 0.2289(12) 0.4890(10) 0.8951(9)
H22 H 0.2201 0.4012 0.9613
H23 H 0.132 0.5188 0.837
H24 H 0.2351 0.5585 0.9341
C20 C -0.0345(8) 0.8230(7) 1.1532(7)
H25 H -0.0731 0.7551 1.1287
O1 O -0.0202(8) 0.9808(6) 1.2482(6)
Si1A Si 0.5719(3) 1.3591(2) 1.29076(19)
C1A C 0.5101(9) 1.0919(8) 1.0660(7)
C2A C 0.7669(9) 1.1480(8) 0.9625(7)
H1A H 0.7718 1.213 1.0031
C3A C 1.1090(10) 1.1109(8) 0.7697(7)
H2A H 1.2114 1.1266 0.7323
C4A C 0.7536(9) 0.9543(8) 0.8355(7)
H3A H 0.7501 0.891 0.7925
C5A C 0.6354(9) 1.0730(7) 0.9816(7)
C6A C 0.8868(9) 1.1230(8) 0.8831(7)
C7A C 0.8809(9) 1.0253(8) 0.8221(7)
C8A C 0.6269(9) 0.9788(7) 0.9161(7)
C9A C 0.5214(9) 1.1821(8) 1.1329(7)
C10A C 0.5353(10) 1.2562(8) 1.1937(7)
C11A C 0.7586(11) 1.2550(8) 1.4006(7)
H4A H 0.8564 1.2569 1.3463
C12A C 0.7935(12) 1.3196(9) 1.4978(9)
H5A H 0.8903 1.2641 1.5513
H6A H 0.8146 1.4131 1.4539
H7A H 0.6981 1.3231 1.5508
C13A C 0.7427(12) 1.1044(9) 1.4652(9)
H8A H 0.85 1.0509 1.5027
H9A H 0.6627 1.0968 1.5319
H10A H 0.7054 1.0688 1.4026
C14A C 0.3774(10) 1.3897(8) 1.3761(8)
H11A H 0.3999 1.4423 1.4313
C15A C 0.2378(11) 1.4798(10) 1.2801(9)
H12A H 0.1354 1.4889 1.3246
H13A H 0.2662 1.571 1.2373
H14A H 0.223 1.4367 1.2172
C16A C 0.3224(12) 1.2578(10) 1.4612(9)
H15A H 0.2148 1.2806 1.4945
H16A H 0.314 1.198 1.412
H17A H 0.4031 1.2101 1.5318
C17A C 0.6177(11) 1.5285(9) 1.1775(8)
H18A H 0.5241 1.5662 1.1131
C18A C 0.6219(12) 1.6371(9) 1.2395(9)
H19A H 0.6213 1.727 1.1736
H20A H 0.525 1.6416 1.2909
H21A H 0.722 1.6121 1.2938
C19A C 0.7711(12) 1.5110(10) 1.1049(9)
H22A H 0.7799 1.5988 1.0387
H23A H 0.868 1.4812 1.163
H24A H 0.7649 1.4415 1.0659
C20A C 1.0345(8) 1.1770(7) 0.8468(7)
H25A H 1.0731 1.2449 0.8713
O1A O 1.0202(8) 1.0192(6) 0.7518(6)
O2? O -0.0345(8) 0.8230(7) 1.1532(7)
C21? C -0.0202(8) 0.9808(6) 1.2482(6)
H26? H -0.0485 1.0371 1.2985
loop_
_geom_bond_atom_site_label_1
_geom_bond_atom_site_label_2
_geom_bond_site_symmetry_1
_geom_bond_site_symmetry_2
Si1 C10 1_555 1_555
C1 C5 1_555 1_555
C2 H1 1_555 1_555
C3 H2 1_555 1_555
C4 H3 1_555 1_555
C5 C2 1_555 1_555
C6 C2 1_555 1_555
C7 C4 1_555 1_555
C8 C4 1_555 1_555
C9 C1 1_555 1_555
C10 C9 1_555 1_555
C11 Si1 1_555 1_555
H4 C11 1_555 1_555
C12 C11 1_555 1_555
H5 C12 1_555 1_555
H6 C12 1_555 1_555
H7 C12 1_555 1_555
C13 C11 1_555 1_555
H8 C13 1_555 1_555
H9 C13 1_555 1_555
H10 C13 1_555 1_555
C14 Si1 1_555 1_555
H11 C14 1_555 1_555
C15 C14 1_555 1_555
H12 C15 1_555 1_555
H13 C15 1_555 1_555
H14 C15 1_555 1_555
C16 C14 1_555 1_555
H15 C16 1_555 1_555
H16 C16 1_555 1_555
H17 C16 1_555 1_555
C17 Si1 1_555 1_555
H18 C17 1_555 1_555
C18 C17 1_555 1_555
H19 C18 1_555 1_555
H20 C18 1_555 1_555
H21 C18 1_555 1_555
C19 C17 1_555 1_555
H22 C19 1_555 1_555
H23 C19 1_555 1_555
H24 C19 1_555 1_555
C20 C3 1_555 1_555
H25 C20 1_555 1_555
O1 C3 1_555 1_555
Si1A C10A 1_555 1_555
C1A C8 1_555 1_555
C2A H1A 1_555 1_555
C3A H2A 1_555 1_555
C4A H3A 1_555 1_555
C5A C1A 1_555 1_555
C6A C2A 1_555 1_555
C7A C4A 1_555 1_555
C8A C1 1_555 1_555
C9A C1A 1_555 1_555
C10A C9A 1_555 1_555
C11A Si1A 1_555 1_555
H4A C11A 1_555 1_555
C12A C11A 1_555 1_555
H5A C12A 1_555 1_555
H6A C12A 1_555 1_555
H7A C12A 1_555 1_555
C13A C11A 1_555 1_555
H8A C13A 1_555 1_555
H9A C13A 1_555 1_555
H10A C13A 1_555 1_555
C14A Si1A 1_555 1_555
H11A C14A 1_555 1_555
C15A C14A 1_555 1_555
H12A C15A 1_555 1_555
H13A C15A 1_555 1_555
H14A C15A 1_555 1_555
C16A C14A 1_555 1_555
H15A C16A 1_555 1_555
H16A C16A 1_555 1_555
H17A C16A 1_555 1_555
C17A Si1A 1_555 1_555
H18A C17A 1_555 1_555
C18A C17A 1_555 1_555
H19A C18A 1_555 1_555
H20A C18A 1_555 1_555
H21A C18A 1_555 1_555
C19A C17A 1_555 1_555
H22A C19A 1_555 1_555
H23A C19A 1_555 1_555
H24A C19A 1_555 1_555
C20A C3A 1_555 1_555
H25A C20A 1_555 1_555
O1A C3A 1_555 1_555
C5 C8 1_555 1_555
C6 C7 1_555 1_555
C6 C20 1_555 1_555
C7 O1 1_555 1_555
C2A C5A 1_555 1_555
C4A C8A 1_555 1_555
C5A C8A 1_555 1_555
C6A C7A 1_555 1_555
C6A C20A 1_555 1_555
C7A O1A 1_555 1_555

#END
