
#######################################################################
#
#                 Cambridge Crystallographic Data Centre
#                                CCDC 
#
#######################################################################
#
# If this CIF has been generated from an entry in the Cambridge 
# Structural Database, then it will include bibliographic, chemical, 
# crystal, experimental, refinement or atomic coordinate data resulting 
# from the CCDC's data processing and validation procedures.
#
#######################################################################

data_ZIBTUB
_chemical_formula_moiety         'C15 H22 O2'
_chemical_name_systematic        
5-Hydroxy-1,4,4,5b-tetramethyldecahydro-2H-cyclopenta[a]cyclopropa[cd]pentalen-2-one
_symmetry_cell_setting           monoclinic
_symmetry_space_group_name_H-M   'P 21'
_symmetry_Int_Tables_number      4
_space_group_name_Hall           'P 2yb'
loop_
_symmetry_equiv_pos_site_id
_symmetry_equiv_pos_as_xyz
1 x,y,z
2 -x,1/2+y,-z
_cell_length_a                   8.7899(3)
_cell_length_b                   12.3404(5)
_cell_length_c                   12.7753(5)
_cell_angle_alpha                90
_cell_angle_beta                 107.321(2)
_cell_angle_gamma                90
_cell_volume                     1322.91
_exptl_crystal_colour            colorless
_exptl_crystal_description       plate
_cell_formula_units_Z            4
loop_
_atom_site_label
_atom_site_type_symbol
_atom_site_fract_x
_atom_site_fract_y
_atom_site_fract_z
C1 C 0.8891(4) 0.4528(3) 0.2534(3)
C2 C 0.8863(4) 0.3845(2) 0.3499(2)
C3 C 0.8571(3) 0.2669(2) 0.3047(2)
C4 C 0.6754(3) 0.2537(2) 0.2474(2)
C5 C 0.6127(3) 0.1375(2) 0.2229(2)
C6 C 0.4617(3) 0.1476(3) 0.1235(2)
C7 C 0.5193(4) 0.2285(3) 0.0531(2)
C8 C 0.6396(4) 0.3044(3) 0.1317(2)
C9 C 0.7991(4) 0.3044(3) 0.1104(3)
C10 C 0.9282(4) 0.2671(3) 0.2076(3)
C11 C 0.9281(5) 0.3844(4) 0.1721(3)
C12 C 1.0493(4) 0.4021(3) 0.4357(3)
C13 C 0.9277(4) 0.1810(3) 0.3903(3)
C14 C 0.3221(3) 0.1948(3) 0.1563(3)
C15 C 0.4144(5) 0.0393(3) 0.0668(3)
H1 H 0.5367 0.1228 0.3404
H2 H 0.8027 0.4069 0.3780
H3 H 0.6168 0.2906 0.2881
H4 H 0.6893 0.0984 0.1989
H5 H 0.5693 0.1911 0.0073
H6 H 0.4318 0.2692 0.0091
H7 H 0.5985 0.3758 0.1300
H8 H 0.8023 0.2803 0.0405
H9 H 1.0074 0.2168 0.2023
H10 H 1.0059 0.4082 0.1392
H11 H 1.0548 0.3604 0.4992
H12 H 1.0623 0.4767 0.4547
H13 H 1.1315 0.3799 0.4061
H14 H 0.9061 0.1113 0.3579
H15 H 1.0397 0.1912 0.4182
H16 H 0.8814 0.1869 0.4485
H17 H 0.2315 0.1999 0.0934
H18 H 0.3496 0.2649 0.1868
H19 H 0.2982 0.1490 0.2091
H20 H 0.3213 0.0482 0.0062
H21 H 0.3934 -0.0109 0.1171
H22 H 0.4987 0.0128 0.0416
O1 O 0.8709(4) 0.5508(2) 0.2482(3)
O2 O 0.5914(2) 0.08098(17) 0.31433(16)
C16 C 0.4825(3) 0.2059(3) 0.5323(2)
C17 C 0.5884(4) 0.1158(3) 0.5974(3)
C18 C 0.6609(3) 0.1632(2) 0.7147(2)
C19 C 0.8141(3) 0.2260(2) 0.7162(2)
C20 C 0.9173(3) 0.2661(2) 0.8280(2)
C21 C 1.0095(3) 0.3654(3) 0.8031(2)
C22 C 0.8794(4) 0.4207(3) 0.7119(3)
C23 C 0.7574(3) 0.3335(2) 0.6548(2)
C24 C 0.5948(3) 0.3516(3) 0.6723(2)
C25 C 0.5455(3) 0.2546(3) 0.7230(2)
C26 C 0.4508(4) 0.2851(3) 0.6075(2)
C27 C 0.4803(6) 0.0183(4) 0.5889(4)
C28 C 0.6859(5) 0.0786(3) 0.8054(3)
C29 C 1.1482(4) 0.3302(3) 0.7620(3)
C30 C 1.0725(4) 0.4358(3) 0.9051(3)
H23 H 1.0581 0.1516 0.8570
H24 H 0.6709 0.0995 0.5659
H25 H 0.8762 0.1856 0.6805
H26 H 0.8470 0.2923 0.8661
H27 H 0.8285 0.4750 0.7423
H28 H 0.9249 0.4529 0.6607
H29 H 0.7489 0.3278 0.5792
H30 H 0.5749 0.4206 0.6984
H31 H 0.5026 0.2599 0.7828
H32 H 0.3466 0.3141 0.5938
H33 H 0.5403 -0.0407 0.6281
H34 H 0.3971 0.0359 0.6193
H35 H 0.4358 -0.0013 0.5141
H36 H 0.7300 0.1125 0.8746
H37 H 0.5866 0.0464 0.8027
H38 H 0.7569 0.0243 0.7954
H39 H 1.2022 0.3925 0.7475
H40 H 1.2201 0.2871 0.8163
H41 H 1.1088 0.2891 0.6966
H42 H 1.1283 0.4960 0.8883
H43 H 1.1427 0.3941 0.9618
H44 H 0.9860 0.4609 0.9288
O3 O 0.4277(3) 0.2073(3) 0.43235(18)
O4 O 1.0162(3) 0.1870(2) 0.89604(18)
loop_
_geom_bond_atom_site_label_1
_geom_bond_atom_site_label_2
_geom_bond_site_symmetry_1
_geom_bond_site_symmetry_2
C1 C2 1_555 1_555
C2 C3 1_555 1_555
C3 C4 1_555 1_555
C4 C5 1_555 1_555
C5 C6 1_555 1_555
C6 C7 1_555 1_555
C7 C8 1_555 1_555
C8 C4 1_555 1_555
C9 C8 1_555 1_555
C10 C3 1_555 1_555
C11 C1 1_555 1_555
C12 C2 1_555 1_555
C13 C3 1_555 1_555
C14 C6 1_555 1_555
C15 C6 1_555 1_555
H1 O2 1_555 1_555
H2 C2 1_555 1_555
H3 C4 1_555 1_555
H4 C5 1_555 1_555
H5 C7 1_555 1_555
H6 C7 1_555 1_555
H7 C8 1_555 1_555
H8 C9 1_555 1_555
H9 C10 1_555 1_555
H10 C11 1_555 1_555
H11 C12 1_555 1_555
H12 C12 1_555 1_555
H13 C12 1_555 1_555
H14 C13 1_555 1_555
H15 C13 1_555 1_555
H16 C13 1_555 1_555
H17 C14 1_555 1_555
H18 C14 1_555 1_555
H19 C14 1_555 1_555
H20 C15 1_555 1_555
H21 C15 1_555 1_555
H22 C15 1_555 1_555
O1 C1 1_555 1_555
O2 C5 1_555 1_555
C16 C17 1_555 1_555
C17 C18 1_555 1_555
C18 C19 1_555 1_555
C19 C20 1_555 1_555
C20 C21 1_555 1_555
C21 C22 1_555 1_555
C22 C23 1_555 1_555
C23 C19 1_555 1_555
C24 C23 1_555 1_555
C25 C18 1_555 1_555
C26 C16 1_555 1_555
C27 C17 1_555 1_555
C28 C18 1_555 1_555
C29 C21 1_555 1_555
C30 C21 1_555 1_555
H23 O4 1_555 1_555
H24 C17 1_555 1_555
H25 C19 1_555 1_555
H26 C20 1_555 1_555
H27 C22 1_555 1_555
H28 C22 1_555 1_555
H29 C23 1_555 1_555
H30 C24 1_555 1_555
H31 C25 1_555 1_555
H32 C26 1_555 1_555
H33 C27 1_555 1_555
H34 C27 1_555 1_555
H35 C27 1_555 1_555
H36 C28 1_555 1_555
H37 C28 1_555 1_555
H38 C28 1_555 1_555
H39 C29 1_555 1_555
H40 C29 1_555 1_555
H41 C29 1_555 1_555
H42 C30 1_555 1_555
H43 C30 1_555 1_555
H44 C30 1_555 1_555
O3 C16 1_555 1_555
O4 C20 1_555 1_555
C9 C10 1_555 1_555
C9 C11 1_555 1_555
C10 C11 1_555 1_555
C24 C25 1_555 1_555
C24 C26 1_555 1_555
C25 C26 1_555 1_555

#END
