
#######################################################################
#
#                 Cambridge Crystallographic Data Centre
#                                CCDC 
#
#######################################################################
#
# If this CIF has been generated from an entry in the Cambridge 
# Structural Database, then it will include bibliographic, chemical, 
# crystal, experimental, refinement or atomic coordinate data resulting 
# from the CCDC's data processing and validation procedures.
#
#######################################################################

data_ZICVAL
_chemical_formula_moiety         'C30 H25 Br1 N2 O2'
_chemical_name_systematic        
1-benzyl-5-bromo-3-hydroxy-3-(2-phenyl-1,2,3,4-tetrahydroisoquinolin-1-yl)-1,3-dihydro-2H-indol-2-one
_symmetry_cell_setting           monoclinic
_symmetry_space_group_name_H-M   'P 21/c'
_symmetry_Int_Tables_number      14
_space_group_name_Hall           '-P 2ybc'
loop_
_symmetry_equiv_pos_site_id
_symmetry_equiv_pos_as_xyz
1 x,y,z
2 -x,1/2+y,1/2-z
3 -x,-y,-z
4 x,1/2-y,1/2+z
_cell_length_a                   23.3150(15)
_cell_length_b                   11.3915(7)
_cell_length_c                   18.4957(12)
_cell_angle_alpha                90
_cell_angle_beta                 93.135(3)
_cell_angle_gamma                90
_cell_volume                     4904.97
_exptl_crystal_colour            colorless
_exptl_crystal_description       BAR
_cell_formula_units_Z            8
loop_
_atom_site_label
_atom_site_type_symbol
_atom_site_fract_x
_atom_site_fract_y
_atom_site_fract_z
Br1 Br 0.430704(17) 0.93862(4) 0.06907(3)
O1 O 0.74998(10) 0.8104(2) 0.15024(16)
N1 N 0.67048(12) 0.7458(3) 0.08355(16)
N2 N 0.65770(12) 0.7559(2) 0.26681(16)
O2 O 0.67178(12) 1.0189(2) 0.15216(18)
H1 H 0.7019 1.0203 0.1313
C1 C 0.50594(14) 0.8753(3) 0.0706(2)
C2 C 0.54728(15) 0.9207(3) 0.11895(19)
H2 H 0.5389 0.9823 0.1497
C3 C 0.67380(16) 0.5324(3) 0.0623(2)
C4 C 0.57192(16) 0.7360(3) 0.0245(2)
H3 H 0.5803 0.6751 -0.0067
C5 C 0.60126(14) 0.8721(3) 0.12013(18)
C6 C 0.69876(15) 0.8142(3) 0.1332(2)
C7 C 0.61267(14) 0.7805(3) 0.07293(18)
C8 C 0.65475(14) 0.8809(3) 0.24766(19)
H4 H 0.6900 0.9165 0.2688
C9 C 0.69519(15) 0.7240(3) 0.32606(19)
C10 C 0.60167(16) 0.6982(4) 0.2603(2)
H5 H 0.6066 0.6153 0.2710
H6 H 0.5862 0.7051 0.2107
C11 C 0.65570(15) 0.9005(3) 0.1642(2)
C12 C 0.75090(17) 0.7701(4) 0.3326(2)
H7 H 0.7627 0.8237 0.2985
C13 C 0.60541(16) 0.9430(4) 0.2820(2)
C14 C 0.51728(16) 0.7857(3) 0.0238(2)
H8 H 0.4884 0.7581 -0.0084
C15 C 0.69624(16) 0.6510(3) 0.0431(2)
H9 H 0.7376 0.6523 0.0528
H10 H 0.6886 0.6644 -0.0083
C16 C 0.68056(18) 0.6421(3) 0.3777(2)
H11 H 0.6441 0.6089 0.3747
C17 C 0.78845(18) 0.7370(4) 0.3890(3)
H12 H 0.8251 0.7696 0.3927
C18 C 0.56053(17) 0.8808(4) 0.3108(2)
C19 C 0.7194(2) 0.6090(4) 0.4335(2)
H13 H 0.7087 0.5535 0.4671
C20 C 0.6521(2) 0.4583(4) 0.0083(3)
H14 H 0.6492 0.4852 -0.0392
C21 C 0.5168(2) 0.9438(6) 0.3423(3)
H15 H 0.4865 0.9033 0.3614
C22 C 0.55899(17) 0.7496(5) 0.3104(2)
H16 H 0.5206 0.7235 0.2951
H17 H 0.5676 0.7209 0.3592
C23 C 0.6384(2) 0.3077(4) 0.0922(4)
H18 H 0.6280 0.2309 0.1022
C24 C 0.6060(2) 1.0659(4) 0.2857(2)
H19 H 0.6358 1.1080 0.2667
C25 C 0.7730(2) 0.6568(4) 0.4397(2)
H20 H 0.7987 0.6355 0.4776
C26 C 0.6752(2) 0.4937(4) 0.1322(3)
H21 H 0.6881 0.5433 0.1696
C27 C 0.5178(3) 1.0631(7) 0.3454(3)
H22 H 0.4882 1.1031 0.3665
C28 C 0.5618(3) 1.1241(5) 0.3177(3)
H23 H 0.5623 1.2056 0.3204
C29 C 0.6575(2) 0.3805(5) 0.1479(3)
H24 H 0.6584 0.3542 0.1955
C30 C 0.6348(3) 0.3471(5) 0.0229(4)
H25 H 0.6206 0.2985 -0.0144
Br2 Br 1.099502(16) 1.01035(4) 0.12216(2)
O3 O 0.85802(10) 0.89467(19) 0.12096(14)
H26 H 0.8253 0.8765 0.1308
O4 O 0.77294(10) 1.0840(2) 0.08204(14)
C31 C 0.97812(14) 1.0101(3) 0.12652(18)
H27 H 0.9838 0.9530 0.1621
N3 N 0.85684(12) 1.1588(2) 0.04146(14)
C32 C 1.02386(14) 1.0582(3) 0.09221(19)
N4 N 0.84565(12) 1.1746(3) 0.22087(15)
C33 C 0.91587(14) 1.1341(3) 0.05278(17)
C34 C 0.92391(14) 1.0497(3) 0.10615(17)
C35 C 1.01615(16) 1.1412(3) 0.03860(19)
H28 H 1.0477 1.1708 0.0160
C36 C 0.85561(16) 1.0486(3) 0.21328(18)
H29 H 0.8200 1.0091 0.2253
C37 C 0.90278(15) 1.0023(3) 0.26577(19)
C38 C 0.89910(15) 1.2424(3) 0.22597(18)
H30 H 0.8901 1.3255 0.2277
H31 H 0.9204 1.2284 0.1832
C39 C 0.96154(16) 1.1809(3) 0.01822(18)
H32 H 0.9558 1.2375 -0.0177
C40 C 0.86637(14) 1.0160(3) 0.13319(17)
C41 C 0.83246(18) 1.2474(3) -0.00796(19)
H33 H 0.7913 1.2358 -0.0139
H34 H 0.8483 1.2375 -0.0550
C42 C 0.82499(14) 1.0894(3) 0.08360(18)
C43 C 0.84434(15) 1.3706(3) 0.01856(18)
C44 C 0.8044(2) 1.2090(5) 0.2699(3)
C45 C 0.94200(15) 1.0786(3) 0.29970(18)
C46 C 0.90846(19) 0.8819(4) 0.2772(2)
H35 H 0.8819 0.8303 0.2553
C47 C 0.93573(15) 1.2096(3) 0.29221(18)
H36 H 0.9186 1.2407 0.3348
H37 H 0.9734 1.2447 0.2894
C48 C 0.98683(18) 1.0324(4) 0.3433(2)
H38 H 1.0133 1.0832 0.3660
C49 C 0.82328(19) 1.4085(4) 0.0823(2)
H39 H 0.8017 1.3577 0.1093
C50 C 0.9930(2) 0.9147(5) 0.3536(3)
H40 H 1.0237 0.8857 0.3825
C51 C 0.77796(19) 1.1311(5) 0.3154(2)
H41 H 0.7884 1.0523 0.3160
C52 C 0.8762(2) 1.4476(4) -0.0198(2)
H42 H 0.8908 1.4236 -0.0632
C53 C 0.8339(2) 1.5212(4) 0.1068(3)
H43 H 0.8190 1.5461 0.1499
C54 C 0.73576(19) 1.1711(5) 0.3602(3)
H44 H 0.7178 1.1191 0.3905
C55 C 0.8659(2) 1.5965(4) 0.0682(3)
H45 H 0.8734 1.6722 0.0851
C56 C 0.8868(2) 1.5601(4) 0.0050(3)
H46 H 0.9084 1.6113 -0.0218
C57 C 0.78892(19) 1.3271(5) 0.2730(2)
H47 H 0.8068 1.3812 0.2440
C58 C 0.9537(2) 0.8393(5) 0.3213(3)
H48 H 0.9574 0.7589 0.3290
C59 C 0.7209(2) 1.2888(5) 0.3591(2)
H49 H 0.6917 1.3148 0.3875
C60 C 0.74755(19) 1.3654(5) 0.3183(2)
H50 H 0.7383 1.4447 0.3202
loop_
_geom_bond_atom_site_label_1
_geom_bond_atom_site_label_2
_geom_bond_site_symmetry_1
_geom_bond_site_symmetry_2
Br1 C1 1_555 1_555
O1 C6 1_555 1_555
N1 C6 1_555 1_555
N2 C8 1_555 1_555
O2 H1 1_555 1_555
C1 C2 1_555 1_555
C2 H2 1_555 1_555
C3 C15 1_555 1_555
C4 H3 1_555 1_555
C5 C2 1_555 1_555
C6 C11 1_555 1_555
C7 N1 1_555 1_555
C8 H4 1_555 1_555
C9 N2 1_555 1_555
C10 N2 1_555 1_555
H5 C10 1_555 1_555
H6 C10 1_555 1_555
C11 O2 1_555 1_555
C12 C9 1_555 1_555
H7 C12 1_555 1_555
C13 C8 1_555 1_555
C14 C1 1_555 1_555
H8 C14 1_555 1_555
C15 N1 1_555 1_555
H9 C15 1_555 1_555
H10 C15 1_555 1_555
C16 C9 1_555 1_555
H11 C16 1_555 1_555
C17 C12 1_555 1_555
H12 C17 1_555 1_555
C18 C13 1_555 1_555
C19 C16 1_555 1_555
H13 C19 1_555 1_555
C20 C3 1_555 1_555
H14 C20 1_555 1_555
C21 C18 1_555 1_555
H15 C21 1_555 1_555
C22 C10 1_555 1_555
H16 C22 1_555 1_555
H17 C22 1_555 1_555
C23 H18 1_555 1_555
C24 C13 1_555 1_555
H19 C24 1_555 1_555
C25 C17 1_555 1_555
H20 C25 1_555 1_555
C26 C3 1_555 1_555
H21 C26 1_555 1_555
C27 C21 1_555 1_555
H22 C27 1_555 1_555
C28 C24 1_555 1_555
H23 C28 1_555 1_555
C29 C23 1_555 1_555
H24 C29 1_555 1_555
C30 C20 1_555 1_555
H25 C30 1_555 1_555
Br2 C32 1_555 1_555
O3 H26 1_555 1_555
O4 C42 1_555 1_555
C31 H27 1_555 1_555
N3 C33 1_555 1_555
C32 C31 1_555 1_555
N4 C36 1_555 1_555
C33 C34 1_555 1_555
C34 C31 1_555 1_555
C35 C32 1_555 1_555
H28 C35 1_555 1_555
C36 H29 1_555 1_555
C37 C36 1_555 1_555
C38 N4 1_555 1_555
H30 C38 1_555 1_555
H31 C38 1_555 1_555
C39 C33 1_555 1_555
H32 C39 1_555 1_555
C40 O3 1_555 1_555
C41 N3 1_555 1_555
H33 C41 1_555 1_555
H34 C41 1_555 1_555
C42 N3 1_555 1_555
C43 C41 1_555 1_555
C44 N4 1_555 1_555
C45 C37 1_555 1_555
C46 C37 1_555 1_555
H35 C46 1_555 1_555
C47 C38 1_555 1_555
H36 C47 1_555 1_555
H37 C47 1_555 1_555
C48 C45 1_555 1_555
H38 C48 1_555 1_555
C49 C43 1_555 1_555
H39 C49 1_555 1_555
C50 C48 1_555 1_555
H40 C50 1_555 1_555
C51 C44 1_555 1_555
H41 C51 1_555 1_555
C52 C43 1_555 1_555
H42 C52 1_555 1_555
C53 C49 1_555 1_555
H43 C53 1_555 1_555
C54 C51 1_555 1_555
H44 C54 1_555 1_555
C55 C53 1_555 1_555
H45 C55 1_555 1_555
C56 C52 1_555 1_555
H46 C56 1_555 1_555
C57 C44 1_555 1_555
H47 C57 1_555 1_555
C58 C46 1_555 1_555
H48 C58 1_555 1_555
C59 C54 1_555 1_555
H49 C59 1_555 1_555
C60 C57 1_555 1_555
H50 C60 1_555 1_555
C4 C7 1_555 1_555
C4 C14 1_555 1_555
C5 C7 1_555 1_555
C5 C11 1_555 1_555
C8 C11 1_555 1_555
C18 C22 1_555 1_555
C19 C25 1_555 1_555
C23 C30 1_555 1_555
C26 C29 1_555 1_555
C27 C28 1_555 1_555
C34 C40 1_555 1_555
C35 C39 1_555 1_555
C36 C40 1_555 1_555
C40 C42 1_555 1_555
C45 C47 1_555 1_555
C50 C58 1_555 1_555
C55 C56 1_555 1_555
C59 C60 1_555 1_555

#END
