
#######################################################################
#
#                 Cambridge Crystallographic Data Centre
#                                CCDC 
#
#######################################################################
#
# If this CIF has been generated from an entry in the Cambridge 
# Structural Database, then it will include bibliographic, chemical, 
# crystal, experimental, refinement or atomic coordinate data resulting 
# from the CCDC's data processing and validation procedures.
#
#######################################################################

data_ZIDKUU
_chemical_formula_moiety         'C16 H12 Cl1 N3 O1'
_chemical_name_systematic        
5-Chloro-2-(((5-phenyl-1H-pyrazol-3-yl)imino)methyl)phenol
_symmetry_cell_setting           monoclinic
_symmetry_space_group_name_H-M   'P 21/n'
_symmetry_Int_Tables_number      14
_space_group_name_Hall           '-P 2yn'
loop_
_symmetry_equiv_pos_site_id
_symmetry_equiv_pos_as_xyz
1 x,y,z
2 1/2-x,1/2+y,1/2-z
3 -x,-y,-z
4 1/2+x,1/2-y,1/2+z
_cell_length_a                   15.8817(11)
_cell_length_b                   5.8250(4)
_cell_length_c                   16.5782(12)
_cell_angle_alpha                90
_cell_angle_beta                 117.321(2)
_cell_angle_gamma                90
_cell_volume                     1362.58
_exptl_crystal_colour            colorless
_exptl_crystal_description       block
_cell_formula_units_Z            4
loop_
_atom_site_label
_atom_site_type_symbol
_atom_site_fract_x
_atom_site_fract_y
_atom_site_fract_z
Cl1 Cl 0.64189(4) 0.84110(10) 0.05201(3)
C1 C 0.66100(12) 0.8342(3) 0.22136(12)
H1 H 0.6893 0.9774 0.2278
N1 N 0.62270(10) 0.5157(3) 0.43230(10)
N2 N 0.56712(11) 0.1723(3) 0.57229(10)
H2 H 0.5422 0.0542 0.5841
O1 O 0.67836(11) 0.8620(2) 0.36915(9)
H3 H 0.6636 0.7943 0.4042
N3 N 0.56279(11) 0.2114(3) 0.48999(10)
C2 C 0.61018(12) 0.4078(3) 0.50155(11)
C3 C 0.64354(12) 0.4917(3) 0.58949(12)
H4 H 0.6784 0.6251 0.6132
C4 C 0.59891(13) 0.4131(3) 0.35655(12)
H5 H 0.5739 0.2657 0.3486
C5 C 0.60975(11) 0.5191(3) 0.28323(11)
C6 C 0.62651(12) 0.3291(3) 0.72704(12)
C7 C 0.64994(12) 0.7393(3) 0.29242(12)
C8 C 0.58054(13) 0.4055(3) 0.20097(13)
H6 H 0.5537 0.2604 0.1940
C9 C 0.64994(14) 0.3241(4) 0.90413(13)
H7 H 0.6574 0.3227 0.9632
C10 C 0.61429(12) 0.3364(3) 0.63398(12)
C11 C 0.58990(13) 0.4996(3) 0.12972(12)
H8 H 0.5699 0.4207 0.0752
C12 C 0.59476(14) 0.1463(3) 0.75890(13)
H9 H 0.5653 0.0227 0.7208
C13 C 0.62989(13) 0.7151(3) 0.14136(12)
C14 C 0.60630(14) 0.1453(4) 0.84664(13)
H10 H 0.5841 0.0215 0.8669
C15 C 0.68259(14) 0.5061(4) 0.87371(13)
H11 H 0.7128 0.6280 0.9125
C16 C 0.67083(13) 0.5087(3) 0.78613(13)
H12 H 0.6930 0.6332 0.7663
loop_
_geom_bond_atom_site_label_1
_geom_bond_atom_site_label_2
_geom_bond_site_symmetry_1
_geom_bond_site_symmetry_2
Cl1 C13 1_555 1_555
C1 H1 1_555 1_555
N1 C2 1_555 1_555
N2 H2 1_555 1_555
O1 H3 1_555 1_555
N3 N2 1_555 1_555
C2 N3 1_555 1_555
C3 C2 1_555 1_555
H4 C3 1_555 1_555
C4 N1 1_555 1_555
H5 C4 1_555 1_555
C5 C4 1_555 1_555
C6 C10 1_555 1_555
C7 C1 1_555 1_555
C8 C5 1_555 1_555
H6 C8 1_555 1_555
C9 H7 1_555 1_555
C10 N2 1_555 1_555
C11 C8 1_555 1_555
H8 C11 1_555 1_555
C12 C6 1_555 1_555
H9 C12 1_555 1_555
C13 C1 1_555 1_555
C14 C9 1_555 1_555
H10 C14 1_555 1_555
C15 C9 1_555 1_555
H11 C15 1_555 1_555
C16 C6 1_555 1_555
H12 C16 1_555 1_555
O1 C7 1_555 1_555
C3 C10 1_555 1_555
C5 C7 1_555 1_555
C11 C13 1_555 1_555
C12 C14 1_555 1_555
C15 C16 1_555 1_555

#END
