
#######################################################################
#
#                 Cambridge Crystallographic Data Centre
#                                CCDC 
#
#######################################################################
#
# If this CIF has been generated from an entry in the Cambridge 
# Structural Database, then it will include bibliographic, chemical, 
# crystal, experimental, refinement or atomic coordinate data resulting 
# from the CCDC's data processing and validation procedures.
#
#######################################################################

data_ZIFKUW
_chemical_formula_moiety         'C17 H10 F3 N1 O2'
_chemical_name_systematic        
8-Methyl-4-(trifluoromethyl)pyrano[2,3-a]carbazol-2(11H)-one
_symmetry_cell_setting           triclinic
_symmetry_space_group_name_H-M   'P -1'
_symmetry_Int_Tables_number      2
_space_group_name_Hall           '-P 1'
loop_
_symmetry_equiv_pos_site_id
_symmetry_equiv_pos_as_xyz
1 x,y,z
2 -x,-y,-z
_cell_length_a                   7.0950(12)
_cell_length_b                   7.2883(12)
_cell_length_c                   13.697(2)
_cell_angle_alpha                91.142(4)
_cell_angle_beta                 90.563(4)
_cell_angle_gamma                110.239(4)
_cell_volume                     664.31
_exptl_crystal_colour            yellow
_exptl_crystal_description       block
_cell_formula_units_Z            2
loop_
_atom_site_label
_atom_site_type_symbol
_atom_site_fract_x
_atom_site_fract_y
_atom_site_fract_z
C1 C 0.66530(18) 1.08582(18) 0.13491(9)
C2 C 0.77576(19) 1.23730(19) 0.07539(10)
H1 H 0.8045 1.2128 0.0098
C3 C 0.8415(2) 1.42437(19) 0.11579(10)
H2 H 0.9162 1.5298 0.0764
C4 C 0.80265(19) 1.46537(19) 0.21285(10)
C5 C 0.69365(19) 1.31309(18) 0.27096(9)
H3 H 0.6659 1.3385 0.3366
C6 C 0.62453(18) 1.12159(18) 0.23254(9)
C7 C 0.50917(18) 0.93484(18) 0.27125(8)
C8 C 0.43234(19) 0.87137(19) 0.36345(9)
H4 H 0.4478 0.9635 0.4157
C9 C 0.33475(19) 0.67574(19) 0.37787(9)
H5 H 0.2858 0.6331 0.4408
C10 C 0.30562(18) 0.53618(18) 0.30045(8)
C11 C 0.37940(18) 0.59969(17) 0.20836(8)
C12 C 0.48279(18) 0.79718(17) 0.19407(8)
C13 C 0.8804(2) 1.6728(2) 0.25197(12)
H6 H 0.8100 1.6824 0.3120
H7 H 0.8572 1.7596 0.2032
H8 H 1.0248 1.7115 0.2662
C14 C 0.26305(19) 0.27836(18) 0.13613(9)
C15 C 0.18075(19) 0.20646(18) 0.23021(9)
H9 H 0.1103 0.0705 0.2371
C16 C 0.20219(18) 0.32832(18) 0.30776(9)
C17 C 0.1244(2) 0.24149(19) 0.40467(9)
F1 F 0.27581(13) 0.26991(13) 0.46892(6)
F2 F -0.00095(13) 0.32164(13) 0.44488(6)
F3 F 0.02630(15) 0.04988(12) 0.39747(6)
N1 N 0.57661(16) 0.88900(15) 0.11231(7)
H10 H 0.600(2) 0.833(2) 0.0594(11)
O1 O 0.35844(13) 0.47601(13) 0.12914(6)
O2 O 0.25418(15) 0.17704(14) 0.06435(7)
loop_
_geom_bond_atom_site_label_1
_geom_bond_atom_site_label_2
_geom_bond_site_symmetry_1
_geom_bond_site_symmetry_2
C1 C2 1_555 1_555
C2 H1 1_555 1_555
C3 C2 1_555 1_555
H2 C3 1_555 1_555
C4 C3 1_555 1_555
C5 C4 1_555 1_555
H3 C5 1_555 1_555
C6 C1 1_555 1_555
C7 C6 1_555 1_555
C8 C7 1_555 1_555
H4 C8 1_555 1_555
C9 C8 1_555 1_555
H5 C9 1_555 1_555
C10 C9 1_555 1_555
C11 C10 1_555 1_555
C12 C7 1_555 1_555
C13 C4 1_555 1_555
H6 C13 1_555 1_555
H7 C13 1_555 1_555
H8 C13 1_555 1_555
C14 C15 1_555 1_555
C15 H9 1_555 1_555
C16 C10 1_555 1_555
C17 C16 1_555 1_555
F1 C17 1_555 1_555
F2 C17 1_555 1_555
F3 C17 1_555 1_555
N1 C1 1_555 1_555
H10 N1 1_555 1_555
O1 C11 1_555 1_555
O2 C14 1_555 1_555
C5 C6 1_555 1_555
C11 C12 1_555 1_555
C12 N1 1_555 1_555
C14 O1 1_555 1_555
C15 C16 1_555 1_555

#END
