
#######################################################################
#
#                 Cambridge Crystallographic Data Centre
#                                CCDC 
#
#######################################################################
#
# If this CIF has been generated from an entry in the Cambridge 
# Structural Database, then it will include bibliographic, chemical, 
# crystal, experimental, refinement or atomic coordinate data resulting 
# from the CCDC's data processing and validation procedures.
#
#######################################################################

data_ZIFKAC
_chemical_formula_moiety         'C20 H15 Cl1 N4 O1'
_chemical_name_systematic        
2-(4-(4-Chlorophenyl)-5-(4-methoxyphenyl)-4H-1,2,4-triazol-3-yl)pyridine
_symmetry_cell_setting           monoclinic
_symmetry_space_group_name_H-M   'P 21/n'
_symmetry_Int_Tables_number      14
_space_group_name_Hall           '-P 2yn'
loop_
_symmetry_equiv_pos_site_id
_symmetry_equiv_pos_as_xyz
1 x,y,z
2 1/2-x,1/2+y,1/2-z
3 -x,-y,-z
4 1/2+x,1/2-y,1/2+z
_cell_length_a                   13.532(6)
_cell_length_b                   7.319(3)
_cell_length_c                   17.602(8)
_cell_angle_alpha                90
_cell_angle_beta                 90.947(7)
_cell_angle_gamma                90
_cell_volume                     1743.08
_exptl_crystal_colour            colorless
_exptl_crystal_description       Block
_cell_formula_units_Z            4
loop_
_atom_site_label
_atom_site_type_symbol
_atom_site_fract_x
_atom_site_fract_y
_atom_site_fract_z
Cl1 Cl 0.82484(6) 0.80144(12) 0.10542(4)
O1 O 1.38597(14) 0.8240(3) 0.31142(11)
N1 N 0.71310(17) 0.7947(3) 0.43476(14)
N2 N 0.92419(17) 0.7097(3) 0.55520(12)
N3 N 1.02241(16) 0.7266(3) 0.53437(12)
N4 N 0.92888(15) 0.7423(3) 0.43129(11)
C1 C 0.6142(2) 0.7980(4) 0.43740(18)
H1 H 0.5796 0.8519 0.3972
C2 C 0.5607(2) 0.7259(4) 0.4964(2)
H2 H 0.4921 0.7341 0.4965
C3 C 0.6109(2) 0.6420(4) 0.5548(2)
H3 H 0.5767 0.5900 0.5947
C4 C 0.7127(2) 0.6351(4) 0.55381(16)
H4 H 0.7485 0.5795 0.5930
C5 C 0.7602(2) 0.7139(3) 0.49258(15)
C6 C 0.86987(19) 0.7185(3) 0.49336(15)
C7 C 1.02382(19) 0.7456(3) 0.46026(15)
C8 C 1.11416(19) 0.7675(3) 0.41612(14)
C9 C 1.19560(19) 0.8497(3) 0.45218(15)
H5 H 1.1900 0.8929 0.5016
C10 C 1.2841(2) 0.8675(4) 0.41521(16)
H6 H 1.3374 0.9237 0.4398
C11 C 1.2944(2) 0.8028(4) 0.34214(16)
C12 C 1.2151(2) 0.7206(4) 0.30559(15)
H7 H 1.2212 0.6767 0.2563
C13 C 1.1262(2) 0.7040(4) 0.34280(15)
H8 H 1.0731 0.6487 0.3178
C14 C 1.4020(2) 0.7481(4) 0.23876(18)
H9 H 1.4687 0.7721 0.2239
H10 H 1.3569 0.8021 0.2026
H11 H 1.3912 0.6185 0.2405
C15 C 0.89956(18) 0.7570(3) 0.35275(14)
C16 C 0.90681(18) 0.9247(4) 0.31750(15)
H12 H 0.9263 1.0277 0.3448
C17 C 0.88440(19) 0.9363(4) 0.24064(16)
H13 H 0.8898 1.0477 0.2156
C18 C 0.85417(19) 0.7837(4) 0.20128(15)
C19 C 0.84626(19) 0.6174(4) 0.23681(16)
H14 H 0.8255 0.5148 0.2097
C20 C 0.86961(19) 0.6048(4) 0.31363(16)
H15 H 0.8649 0.4931 0.3385
loop_
_geom_bond_atom_site_label_1
_geom_bond_atom_site_label_2
_geom_bond_site_symmetry_1
_geom_bond_site_symmetry_2
Cl1 C18 1_555 1_555
O1 C11 1_555 1_555
N1 C1 1_555 1_555
N2 N3 1_555 1_555
N3 C7 1_555 1_555
N4 C6 1_555 1_555
C1 H1 1_555 1_555
C2 C1 1_555 1_555
H2 C2 1_555 1_555
C3 C2 1_555 1_555
H3 C3 1_555 1_555
C4 C3 1_555 1_555
H4 C4 1_555 1_555
C5 N1 1_555 1_555
C6 N2 1_555 1_555
C7 N4 1_555 1_555
C8 C7 1_555 1_555
C9 C8 1_555 1_555
H5 C9 1_555 1_555
C10 C9 1_555 1_555
H6 C10 1_555 1_555
C11 C10 1_555 1_555
C12 C11 1_555 1_555
H7 C12 1_555 1_555
C13 C8 1_555 1_555
H8 C13 1_555 1_555
C14 O1 1_555 1_555
H9 C14 1_555 1_555
H10 C14 1_555 1_555
H11 C14 1_555 1_555
C15 N4 1_555 1_555
C16 C15 1_555 1_555
H12 C16 1_555 1_555
C17 C16 1_555 1_555
H13 C17 1_555 1_555
C18 C17 1_555 1_555
C19 C18 1_555 1_555
H14 C19 1_555 1_555
C20 C15 1_555 1_555
H15 C20 1_555 1_555
C4 C5 1_555 1_555
C5 C6 1_555 1_555
C12 C13 1_555 1_555
C19 C20 1_555 1_555

#END
