
#######################################################################
#
#                 Cambridge Crystallographic Data Centre
#                                CCDC 
#
#######################################################################
#
# If this CIF has been generated from an entry in the Cambridge 
# Structural Database, then it will include bibliographic, chemical, 
# crystal, experimental, refinement or atomic coordinate data resulting 
# from the CCDC's data processing and validation procedures.
#
#######################################################################

data_ZIFLAD
_chemical_formula_moiety         'C15 H10 F3 N1 O2'
_chemical_name_systematic        
2,2,2-Trifluoro-1-(1-hydroxy-6-methyl-9H-carbazol-2-yl)ethanone
_symmetry_cell_setting           triclinic
_symmetry_space_group_name_H-M   'P -1'
_symmetry_Int_Tables_number      2
_space_group_name_Hall           '-P 1'
loop_
_symmetry_equiv_pos_site_id
_symmetry_equiv_pos_as_xyz
1 x,y,z
2 -x,-y,-z
_cell_length_a                   6.1060(4)
_cell_length_b                   13.6747(8)
_cell_length_c                   15.0463(9)
_cell_angle_alpha                89.0437(8)
_cell_angle_beta                 89.7500(8)
_cell_angle_gamma                78.0921(8)
_cell_volume                     1229.12
_exptl_crystal_colour            orange
_exptl_crystal_description       plate
_cell_formula_units_Z            4
loop_
_atom_site_label
_atom_site_type_symbol
_atom_site_fract_x
_atom_site_fract_y
_atom_site_fract_z
C1 C 0.40350(19) 0.80545(8) 0.07796(7)
C2 C 0.3691(2) 0.71094(9) 0.05648(8)
H1 H 0.2329 0.7023 0.0306
C3 C 0.5418(2) 0.63021(9) 0.07451(8)
H2 H 0.5227 0.5653 0.0595
C4 C 0.7453(2) 0.64009(9) 0.11424(8)
C5 C 0.7739(2) 0.73434(9) 0.13755(8)
H3 H 0.9080 0.7423 0.1656
C6 C 0.60319(19) 0.81776(8) 0.11929(7)
C7 C 0.58177(18) 0.92327(8) 0.13280(7)
C8 C 0.72095(19) 0.98104(9) 0.17124(8)
H4 H 0.8618 0.9500 0.1957
C9 C 0.64960(18) 1.08330(9) 0.17280(7)
H5 H 0.7412 1.1227 0.1999
C10 C 0.44079(18) 1.13138(8) 0.13450(7)
C11 C 0.30048(18) 1.07302(8) 0.09618(7)
C12 C 0.37200(18) 0.96964(8) 0.09736(7)
C13 C 0.9245(3) 0.54865(10) 0.13204(11)
H6 H 1.0510 0.5680 0.1620
H7 H 0.9752 0.5167 0.0757
H8 H 0.8642 0.5017 0.1701
C14 C 0.36163(19) 1.23871(8) 0.13262(8)
C15 C 0.5026(2) 1.30654(9) 0.17721(8)
F1 F 0.71338(13) 1.29095(6) 0.14778(5)
F2 F 0.41211(15) 1.40213(6) 0.16289(6)
F3 F 0.51006(14) 1.28992(6) 0.26535(5)
N1 N 0.26356(16) 0.89838(7) 0.06575(7)
H9 H 0.1291 0.9098 0.0420
O1 O 0.10111(14) 1.11334(6) 0.05865(6)
H10 H 0.0762 1.1758 0.0632
O2 O 0.18323(14) 1.28222(7) 0.09984(6)
C16 C -0.10743(19) 0.83727(9) 0.38697(7)
C17 C -0.1386(2) 0.73906(9) 0.39137(8)
H11 H -0.2739 0.7238 0.4135
C18 C 0.0346(2) 0.66485(9) 0.36242(8)
H12 H 0.0171 0.5974 0.3654
C19 C 0.2368(2) 0.68528(9) 0.32853(8)
C20 C 0.2618(2) 0.78372(9) 0.32060(8)
H13 H 0.3939 0.7988 0.2951
C21 C 0.09011(19) 0.86059(8) 0.35060(7)
C22 C 0.06642(18) 0.96738(8) 0.35737(7)
C23 C 0.20040(19) 1.03550(9) 0.33169(8)
H14 H 0.3393 1.0130 0.3024
C24 C 0.12684(19) 1.13485(9) 0.34977(8)
H15 H 0.2155 1.1812 0.3317
C25 C -0.07946(18) 1.17036(8) 0.39499(7)
C26 C -0.21454(18) 1.10242(8) 0.42049(7)
C27 C -0.14093(18) 1.00216(8) 0.39949(7)
C28 C 0.4228(2) 0.59892(11) 0.30649(10)
H16 H 0.5526 0.6242 0.2848
H17 H 0.3727 0.5588 0.2603
H18 H 0.4647 0.5574 0.3599
C29 C -0.16127(19) 1.27429(9) 0.41695(8)
C30 C -0.0296(2) 1.35417(9) 0.38569(9)
F4 F 0.18161(13) 1.33533(6) 0.41437(5)
F5 F -0.12726(16) 1.44353(6) 0.41500(8)
F6 F -0.02294(16) 1.35886(7) 0.29685(6)
N2 N -0.24675(16) 0.92384(7) 0.41554(7)
H19 H -0.3798 0.9282 0.4398
O3 O -0.41096(14) 1.12958(6) 0.46399(6)
H20 H -0.4355 1.1912 0.4738
O4 O -0.33594(15) 1.30610(7) 0.45730(6)
loop_
_geom_bond_atom_site_label_1
_geom_bond_atom_site_label_2
_geom_bond_site_symmetry_1
_geom_bond_site_symmetry_2
C1 C2 1_555 1_555
C2 H1 1_555 1_555
C3 C2 1_555 1_555
H2 C3 1_555 1_555
C4 C3 1_555 1_555
C5 C4 1_555 1_555
H3 C5 1_555 1_555
C6 C1 1_555 1_555
C7 C6 1_555 1_555
C8 C7 1_555 1_555
H4 C8 1_555 1_555
C9 C8 1_555 1_555
H5 C9 1_555 1_555
C10 C9 1_555 1_555
C11 C10 1_555 1_555
C12 C7 1_555 1_555
C13 C4 1_555 1_555
H6 C13 1_555 1_555
H7 C13 1_555 1_555
H8 C13 1_555 1_555
C14 C10 1_555 1_555
C15 C14 1_555 1_555
F1 C15 1_555 1_555
F2 C15 1_555 1_555
F3 C15 1_555 1_555
N1 C1 1_555 1_555
H9 N1 1_555 1_555
O1 C11 1_555 1_555
H10 O1 1_555 1_555
O2 C14 1_555 1_555
C16 C17 1_555 1_555
C17 H11 1_555 1_555
C18 C17 1_555 1_555
H12 C18 1_555 1_555
C19 C18 1_555 1_555
C20 C19 1_555 1_555
H13 C20 1_555 1_555
C21 C16 1_555 1_555
C22 C21 1_555 1_555
C23 C22 1_555 1_555
H14 C23 1_555 1_555
C24 C23 1_555 1_555
H15 C24 1_555 1_555
C25 C24 1_555 1_555
C26 C25 1_555 1_555
C27 C22 1_555 1_555
C28 C19 1_555 1_555
H16 C28 1_555 1_555
H17 C28 1_555 1_555
H18 C28 1_555 1_555
C29 C25 1_555 1_555
C30 C29 1_555 1_555
F4 C30 1_555 1_555
F5 C30 1_555 1_555
F6 C30 1_555 1_555
N2 C16 1_555 1_555
H19 N2 1_555 1_555
O3 C26 1_555 1_555
H20 O3 1_555 1_555
O4 C29 1_555 1_555
C5 C6 1_555 1_555
C11 C12 1_555 1_555
C12 N1 1_555 1_555
C20 C21 1_555 1_555
C26 C27 1_555 1_555
C27 N2 1_555 1_555

#END
