
#######################################################################
#
#                 Cambridge Crystallographic Data Centre
#                                CCDC 
#
#######################################################################
#
# If this CIF has been generated from an entry in the Cambridge 
# Structural Database, then it will include bibliographic, chemical, 
# crystal, experimental, refinement or atomic coordinate data resulting 
# from the CCDC's data processing and validation procedures.
#
#######################################################################

data_ZIFNOT
_chemical_formula_moiety         
'C36 H36 N24 O12 2-,C22 H30 N2 O4 2+,7.5(H2 O1)'
_chemical_name_systematic        
'(2)-((1,6-bis(4-Carboxybenzylammonio)hexane) cucurbit(6)uril) rotaxane hydrate'
_symmetry_cell_setting           triclinic
_symmetry_space_group_name_H-M   'P -1'
_symmetry_Int_Tables_number      2
_space_group_name_Hall           '-P 1'
loop_
_symmetry_equiv_pos_site_id
_symmetry_equiv_pos_as_xyz
1 x,y,z
2 -x,-y,-z
_cell_length_a                   12.485(5)
_cell_length_b                   17.202(5)
_cell_length_c                   17.659(5)
_cell_angle_alpha                94.549(5)
_cell_angle_beta                 93.303(5)
_cell_angle_gamma                111.017(5)
_cell_volume                     3513.99
_exptl_crystal_colour            colorless
_exptl_crystal_description       block
_cell_formula_units_Z            2
loop_
_atom_site_label
_atom_site_type_symbol
_atom_site_fract_x
_atom_site_fract_y
_atom_site_fract_z
C13 C 0.5516(11) 0.9930(8) 0.3527(7)
C14 C 0.4744(11) 0.9135(7) 0.3339(7)
C15 C 0.5305(9) 0.8748(6) 0.4505(6)
C16 C 0.6377(14) 0.9207(10) 0.4236(10)
C17 C 0.430(3) 0.885(2) 0.425(2)
C18 C 0.5572(10) 1.0588(9) 0.3015(11)
C19 C 0.5163(13) 0.8131(6) 0.5109(7)
H12 H 0.5821 0.8352 0.5489
H13 H 0.4480 0.8088 0.5365
C20 C 0.4851(8) 0.6713(5) 0.5378(5)
C21 C 0.501(3) 0.5861(16) 0.4971(16)
C22 C 0.4721(14) 0.5230(11) 0.5525(10)
N2 N 0.5062(6) 0.7288(4) 0.4791(4)
H14 H 0.4479 0.7091 0.4418
H15 H 0.5716 0.7317 0.4584
O3 O 0.4607(6) 1.0656(4) 0.2745(4)
H16 H 0.4778 1.1114 0.2409
O4 O 0.6424(6) 1.1034(4) 0.2786(4)
C23 C 0.6182(14) 1.0134(8) 0.4204(8)
C24 C 0.545(3) 0.5704(18) 0.4743(17)
C25 C 0.449(3) 0.5789(16) 0.5135(16)
C13A C 0.4484(11) 0.0070(8) 0.6473(7)
C14A C 0.5256(11) 0.0865(7) 0.6661(7)
C15A C 0.4695(9) 0.1252(6) 0.5495(6)
C16A C 0.3623(14) 0.0793(10) 0.5764(10)
C17A C 0.570(3) 0.115(2) 0.575(2)
C18A C 0.4428(10) -0.0588(9) 0.6985(11)
C19A C 0.4837(13) 0.1869(6) 0.4891(7)
H12A H 0.4179 0.1648 0.4511
H13A H 0.5520 0.1912 0.4635
C20A C 0.5149(8) 0.3287(5) 0.4622(5)
C21A C 0.499(3) 0.4139(16) 0.5029(16)
C22A C 0.5279(14) 0.4770(11) 0.4475(10)
N2A N 0.4938(6) 0.2712(4) 0.5209(4)
H14A H 0.5521 0.2909 0.5582
H15A H 0.4284 0.2683 0.5416
O3A O 0.5393(6) -0.0656(4) 0.7255(4)
H16A H 0.5222 -0.1114 0.7591
O4A O 0.3576(6) -0.1034(4) 0.7214(4)
C23A C 0.3818(14) -0.0134(8) 0.5796(8)
C24A C 0.455(3) 0.4296(18) 0.5257(17)
C25A C 0.551(3) 0.4211(16) 0.4865(16)
C26 C 1.3767(6) 1.0378(5) 0.0081(4)
C27 C 1.3137(6) 0.8840(5) 0.0159(5)
H17 H 1.3522 0.8491 -0.0066
H18 H 1.3468 0.9023 0.0682
C28 C 1.1391(6) 0.8294(5) 0.0819(4)
C29 C 0.9657(6) 0.7324(5) 0.1300(4)
H19 H 1.0127 0.7566 0.1777
H20 H 0.9449 0.6722 0.1269
C30 C 0.8518(6) 0.8123(4) 0.1785(4)
C31 C 0.7063(7) 0.8739(5) 0.2098(4)
H21 H 0.6270 0.8456 0.2201
H22 H 0.7527 0.8928 0.2583
C32 C 0.8026(6) 1.0222(5) 0.1889(4)
C33 C 0.8399(7) 1.1694(5) 0.1668(4)
H23 H 0.7841 1.1960 0.1740
H24 H 0.8877 1.1796 0.2146
C34 C 0.6647(6) 1.0464(4) 0.1065(4)
H25 H 0.6144 1.0746 0.1256
C35 C 0.6213(6) 0.9531(4) 0.1232(4)
H26 H 0.5500 0.9380 0.1486
C36 C 0.6726(6) 0.7522(5) 0.1063(4)
H27 H 0.6033 0.7132 0.1251
C37 C 0.7557(6) 0.7075(4) 0.0809(4)
H28 H 0.7243 0.6477 0.0877
C38 C 1.0231(6) 0.7172(4) -0.0042(4)
H29 H 1.0192 0.6602 0.0021
C39 C 1.1339(6) 0.7670(5) -0.0416(4)
H30 H 1.1794 0.7326 -0.0546
C40 C 0.9708(6) 0.7581(4) -0.1205(4)
C41 C 0.8101(6) 0.6746(4) -0.0517(4)
H31 H 0.7679 0.6657 -0.1015
H32 H 0.7979 0.6201 -0.0346
C42 C 0.6922(6) 0.7587(4) -0.0235(4)
C43 C 0.5589(6) 0.8193(5) 0.0296(5)
H33 H 0.4996 0.7947 0.0630
H34 H 0.5233 0.8051 -0.0224
N3 N 0.7796(5) 1.0806(4) 0.1492(3)
N4 N 0.7139(5) 0.9457(4) 0.1706(3)
N5 N 0.7448(5) 0.8145(4) 0.1667(3)
N6 N 0.8616(5) 0.7513(4) 0.1304(3)
N7 N 1.0334(5) 0.7638(4) 0.0673(3)
N8 N 1.1939(5) 0.8344(4) 0.0162(3)
N9 N 1.3370(5) 0.9575(4) -0.0256(4)
N10 N 1.0885(5) 0.7923(4) -0.1088(3)
N11 N 0.9309(5) 0.7165(4) -0.0590(3)
N12 N 0.7640(5) 0.7204(4) 0.0009(3)
N13 N 0.6459(5) 0.7833(4) 0.0379(3)
N14 N 0.6024(5) 0.9088(4) 0.0468(4)
O5 O 1.3937(5) 1.0582(4) 0.0779(3)
O6 O 1.1746(4) 0.8758(3) 0.1416(3)
O7 O 0.9268(5) 0.8574(3) 0.2272(3)
O8 O 0.8865(5) 1.0363(4) 0.2326(3)
O9 O 0.9122(5) 0.7616(3) -0.1764(3)
O10 O 0.6709(4) 0.7691(3) -0.0895(3)
C26A C 0.6233(6) 0.9622(5) -0.0081(4)
C27A C 0.6863(6) 1.1160(5) -0.0159(5)
H17A H 0.6478 1.1509 0.0066
H18A H 0.6532 1.0977 -0.0682
C28A C 0.8609(6) 1.1706(5) -0.0819(4)
C29A C 1.0343(6) 1.2676(5) -0.1300(4)
H19A H 0.9873 1.2434 -0.1777
H20A H 1.0551 1.3278 -0.1269
C30A C 1.1482(6) 1.1877(4) -0.1785(4)
C31A C 1.2937(7) 1.1261(5) -0.2098(4)
H21A H 1.3730 1.1544 -0.2201
H22A H 1.2473 1.1072 -0.2583
C32A C 1.1974(6) 0.9778(5) -0.1889(4)
C33A C 1.1601(7) 0.8306(5) -0.1668(4)
H23A H 1.2159 0.8040 -0.1740
H24A H 1.1123 0.8204 -0.2146
C34A C 1.3353(6) 0.9536(4) -0.1065(4)
H25A H 1.3856 0.9254 -0.1256
C35A C 1.3787(6) 1.0469(4) -0.1232(4)
H26A H 1.4500 1.0620 -0.1486
C36A C 1.3274(6) 1.2478(5) -0.1063(4)
H27A H 1.3967 1.2868 -0.1251
C37A C 1.2443(6) 1.2925(4) -0.0809(4)
H28A H 1.2757 1.3523 -0.0877
C38A C 0.9769(6) 1.2828(4) 0.0042(4)
H29A H 0.9808 1.3398 -0.0021
C39A C 0.8661(6) 1.2330(5) 0.0416(4)
H30A H 0.8206 1.2674 0.0546
C40A C 1.0292(6) 1.2419(4) 0.1205(4)
C41A C 1.1899(6) 1.3254(4) 0.0517(4)
H31A H 1.2321 1.3343 0.1015
H32A H 1.2021 1.3799 0.0346
C42A C 1.3078(6) 1.2413(4) 0.0235(4)
C43A C 1.4411(6) 1.1807(5) -0.0296(5)
H33A H 1.5004 1.2053 -0.0630
H34A H 1.4767 1.1949 0.0224
N3A N 1.2204(5) 0.9194(4) -0.1492(3)
N4A N 1.2861(5) 1.0543(4) -0.1706(3)
N5A N 1.2552(5) 1.1855(4) -0.1667(3)
N6A N 1.1384(5) 1.2487(4) -0.1304(3)
N7A N 0.9666(5) 1.2362(4) -0.0673(3)
N8A N 0.8061(5) 1.1656(4) -0.0162(3)
N9A N 0.6630(5) 1.0425(4) 0.0256(4)
N10A N 0.9115(5) 1.2077(4) 0.1088(3)
N11A N 1.0691(5) 1.2835(4) 0.0590(3)
N12A N 1.2360(5) 1.2796(4) -0.0009(3)
N13A N 1.3541(5) 1.2167(4) -0.0379(3)
N14A N 1.3976(5) 1.0912(4) -0.0468(4)
O5A O 0.6063(5) 0.9418(4) -0.0779(3)
O6A O 0.8254(4) 1.1242(3) -0.1416(3)
O7A O 1.0732(5) 1.1426(3) -0.2272(3)
O8A O 1.1135(5) 0.9637(4) -0.2326(3)
O9A O 1.0878(5) 1.2384(3) 0.1764(3)
O10A O 1.3291(4) 1.2309(3) 0.0895(3)
C44 C 0.8197(6) 0.7135(4) 0.5061(4)
C45 C 0.8422(6) 0.7182(4) 0.3677(4)
H35 H 0.8343 0.7722 0.3768
H36 H 0.9117 0.7268 0.3422
C46 C 0.6413(6) 0.6749(4) 0.3109(4)
C47 C 0.4507(6) 0.6066(4) 0.2383(4)
H37 H 0.4436 0.6599 0.2532
H38 H 0.4332 0.5945 0.1834
C48 C 0.3042(6) 0.5608(4) 0.3272(4)
C49 C 0.1163(7) 0.4901(5) 0.3795(4)
H39 H 0.0435 0.4590 0.3497
H40 H 0.1209 0.5474 0.3902
C50 C 0.0713(6) 0.3667(4) 0.4591(4)
H41 H -0.0071 0.3405 0.4341
C51 C 0.2039(6) 0.4193(4) 0.2820(4)
H42 H 0.1308 0.3962 0.2497
C52 C 0.3076(5) 0.4564(4) 0.2346(4)
H43 H 0.2819 0.4587 0.1816
C53 C 0.6213(6) 0.5576(4) 0.2258(4)
H44 H 0.6240 0.5595 0.1706
C54 C 0.7435(6) 0.5930(4) 0.2679(4)
H45 H 0.8025 0.6096 0.2320
C55 C 0.9270(5) 0.6383(4) 0.4546(4)
H46 H 1.0048 0.6650 0.4390
C56 C 0.8554(6) 0.4987(5) 0.4795(5)
C57 C 0.8554(6) 0.5212(5) 0.3440(4)
H47 H 0.8529 0.4641 0.3377
H48 H 0.9199 0.5552 0.3185
C58 C 0.6537(6) 0.4525(4) 0.2863(4)
C59 C 0.4716(6) 0.4089(4) 0.2030(4)
H49 H 0.4630 0.4238 0.1518
H50 H 0.4815 0.3554 0.1988
C60 C 0.3195(5) 0.3396(4) 0.2866(4)
C61 C 0.1461(6) 0.2932(4) 0.3557(4)
H51 H 0.0704 0.2805 0.3295
H52 H 0.1621 0.2419 0.3528
N15 N 0.1173(5) 0.4541(4) 0.4517(3)
N16 N 0.2089(5) 0.4895(3) 0.3345(3)
N17 N 0.3668(5) 0.5415(3) 0.2750(3)
N18 N 0.5696(5) 0.6137(4) 0.2578(3)
N19 N 0.7459(5) 0.6639(4) 0.3179(3)
N20 N 0.8558(5) 0.6879(3) 0.4408(3)
N21 N 0.8750(5) 0.5501(4) 0.4230(3)
N22 N 0.7502(5) 0.5236(3) 0.3072(3)
N23 N 0.5759(5) 0.4727(3) 0.2445(3)
N24 N 0.3674(4) 0.3999(3) 0.2392(3)
N25 N 0.2312(5) 0.3547(3) 0.3171(3)
N26 N 0.1444(5) 0.3208(3) 0.4346(3)
O11 O 0.7657(4) 0.7604(3) 0.5118(3)
O12 O 0.6196(5) 0.7311(3) 0.3452(3)
O13 O 0.3241(5) 0.6293(3) 0.3622(3)
O14 O 0.3514(4) 0.2813(3) 0.2978(3)
O15 O 0.6407(4) 0.3815(3) 0.3041(3)
O16 O 0.8204(5) 0.4212(3) 0.4688(3)
C44A C 0.1803(6) 0.2865(4) 0.4939(4)
C45A C 0.1578(6) 0.2818(4) 0.6323(4)
H35A H 0.1657 0.2278 0.6232
H36A H 0.0883 0.2732 0.6578
C46A C 0.3587(6) 0.3251(4) 0.6891(4)
C47A C 0.5493(6) 0.3934(4) 0.7617(4)
H37A H 0.5564 0.3401 0.7468
H38A H 0.5668 0.4055 0.8166
C48A C 0.6958(6) 0.4392(4) 0.6728(4)
C49A C 0.8837(7) 0.5099(5) 0.6205(4)
H39A H 0.9565 0.5410 0.6503
H40A H 0.8791 0.4526 0.6098
C50A C 0.9287(6) 0.6333(4) 0.5409(4)
H41A H 1.0071 0.6595 0.5659
C51A C 0.7961(6) 0.5807(4) 0.7180(4)
H42A H 0.8692 0.6038 0.7503
C52A C 0.6924(5) 0.5436(4) 0.7654(4)
H43A H 0.7181 0.5413 0.8184
C53A C 0.3787(6) 0.4424(4) 0.7742(4)
H44A H 0.3760 0.4405 0.8294
C54A C 0.2565(6) 0.4070(4) 0.7321(4)
H45A H 0.1975 0.3904 0.7680
C55A C 0.0730(5) 0.3617(4) 0.5454(4)
H46A H -0.0048 0.3350 0.5610
C56A C 0.1446(6) 0.5013(5) 0.5205(5)
C57A C 0.1446(6) 0.4788(5) 0.6560(4)
H47A H 0.1471 0.5359 0.6623
H48A H 0.0801 0.4448 0.6815
C58A C 0.3463(6) 0.5475(4) 0.7137(4)
C59A C 0.5284(6) 0.5911(4) 0.7970(4)
H49A H 0.5370 0.5762 0.8482
H50A H 0.5185 0.6446 0.8012
C60A C 0.6805(5) 0.6604(4) 0.7134(4)
C61A C 0.8539(6) 0.7068(4) 0.6443(4)
H51A H 0.9296 0.7195 0.6705
H52A H 0.8379 0.7581 0.6472
N15A N 0.8827(5) 0.5459(4) 0.5483(3)
N16A N 0.7911(5) 0.5105(3) 0.6655(3)
N17A N 0.6332(5) 0.4585(3) 0.7250(3)
N18A N 0.4304(5) 0.3863(4) 0.7422(3)
N19A N 0.2541(5) 0.3361(4) 0.6821(3)
N20A N 0.1442(5) 0.3121(3) 0.5592(3)
N21A N 0.1250(5) 0.4499(4) 0.5770(3)
N22A N 0.2498(5) 0.4764(3) 0.6928(3)
N23A N 0.4241(5) 0.5273(3) 0.7555(3)
N24A N 0.6326(4) 0.6001(3) 0.7608(3)
N25A N 0.7688(5) 0.6453(3) 0.6829(3)
N26A N 0.8556(5) 0.6792(3) 0.5654(3)
O11A O 0.2343(4) 0.2396(3) 0.4882(3)
O12A O 0.3804(5) 0.2689(3) 0.6548(3)
O13A O 0.6759(5) 0.3707(3) 0.6378(3)
O14A O 0.6486(4) 0.7187(3) 0.7022(3)
O15A O 0.3593(4) 0.6185(3) 0.6959(3)
O16A O 0.1796(5) 0.5788(3) 0.5312(3)
O17 O 0.4564(5) 0.1912(4) 0.2106(4)
O18 O 0.8939(12) 0.3081(9) 0.6939(8)
O19 O 0.3447(9) 0.7269(6) 0.8687(6)
O20 O 0.7733(12) 0.2761(8) 0.3421(8)
O21 O 0.7673(11) 0.2680(8) 0.5157(8)
O22 O 0.3943(14) 0.7939(10) 0.1811(10)
O23 O 0.9174(15) 0.3662(11) 0.2331(10)
O24 O 0.5000 0.5000 0.0000
C1 C 0.1618(7) 0.9998(5) 0.3500(4)
C2 C 0.1484(8) 0.9191(5) 0.3556(5)
H1 H 0.1531 0.8854 0.3129
C3 C 0.1283(10) 0.8872(6) 0.4231(6)
H2 H 0.1191 0.8316 0.4269
C4 C 0.1216(11) 0.9361(7) 0.4850(7)
C5 C 0.1349(12) 1.0168(7) 0.4793(6)
H3 H 0.1303 1.0505 0.5220
C6 C 0.1550(10) 1.0487(6) 0.4118(6)
H4 H 0.1642 1.1043 0.4080
C7 C 0.1863(11) 1.0439(7) 0.2842(6)
H5 H 0.2621 1.0472 0.2712
H6 H 0.1908 1.1007 0.2982
C8 C 0.1392(8) 1.0611(7) 0.1509(5)
H7 H 0.2135 1.0616 0.1371
H8 H 0.1478 1.1184 0.1675
C9 C 0.0559(13) 1.0307(10) 0.0832(9)
C10 C 0.0819(15) 1.0598(11) 0.0144(10)
C11 C 0.080(3) 0.9000(12) 0.5534(12)
N1 N 0.1061(6) 1.0104(5) 0.2152(4)
H9 H 0.0353 1.0074 0.2263
H10 H 0.1022 0.9580 0.2008
O1 O 0.0996(6) 0.9538(4) 0.6103(4)
O2 O 0.0823(6) 0.8343(4) 0.5754(4)
H11 H 0.0590 0.8318 0.6283
C12 C 0.011(2) 0.9695(15) 0.0570(13)
C1A C -0.1618(7) 1.0002(5) -0.3500(4)
C2A C -0.1484(8) 1.0809(5) -0.3556(5)
H1A H -0.1531 1.1146 -0.3129
C3A C -0.1283(10) 1.1128(6) -0.4231(6)
H2A H -0.1191 1.1684 -0.4269
C4A C -0.1216(11) 1.0639(7) -0.4850(7)
C5A C -0.1349(12) 0.9832(7) -0.4793(6)
H3A H -0.1303 0.9495 -0.5220
C6A C -0.1550(10) 0.9513(6) -0.4118(6)
H4A H -0.1642 0.8957 -0.4080
C7A C -0.1863(11) 0.9561(7) -0.2842(6)
H5A H -0.2621 0.9528 -0.2712
H6A H -0.1908 0.8993 -0.2982
C8A C -0.1392(8) 0.9389(7) -0.1509(5)
H7A H -0.2135 0.9384 -0.1371
H8A H -0.1478 0.8816 -0.1675
C9A C -0.0559(13) 0.9693(10) -0.0832(9)
C10A C -0.0819(15) 0.9402(11) -0.0144(10)
C11A C -0.080(3) 1.1000(12) -0.5534(12)
N1A N -0.1061(6) 0.9896(5) -0.2152(4)
H9A H -0.0353 0.9926 -0.2263
H10A H -0.1022 1.0420 -0.2008
O1A O -0.0996(6) 1.0462(4) -0.6103(4)
O2A O -0.0823(6) 1.1657(4) -0.5754(4)
H11A H -0.0590 1.1682 -0.6283
C12A C -0.011(2) 1.0305(15) -0.0570(13)
C62? C 0.245(3) 0.970(2) 0.374(2)
C63? C 0.232(4) 0.927(3) 0.424(3)
C64? C 0.1344(19) 0.8888(14) 0.4682(14)
C65? C 0.054(2) 0.9222(17) 0.4521(16)
C66? C 0.065(3) 0.9749(19) 0.3969(17)
C67? C 0.4639(10) 0.8544(7) 0.3828(6)
H53? H 0.4112 0.8002 0.3700
C68? C 0.6077(13) 0.9543(8) 0.4693(8)
H54? H 0.6532 0.9682 0.5155
C69? C 0.6443(15) 0.9773(11) 0.3753(10)
C70? C 0.462(4) 0.951(3) 0.377(2)
H55? H 0.4289 0.8996 0.2877
H56? H 0.6709 1.0677 0.4332
loop_
_geom_bond_atom_site_label_1
_geom_bond_atom_site_label_2
_geom_bond_site_symmetry_1
_geom_bond_site_symmetry_2
C1 C2 1_555 1_555
C2 H1 1_555 1_555
C3 C2 1_555 1_555
H2 C3 1_555 1_555
C4 C3 1_555 1_555
C5 C4 1_555 1_555
H3 C5 1_555 1_555
C6 C1 1_555 1_555
H4 C6 1_555 1_555
C7 C1 1_555 1_555
H5 C7 1_555 1_555
H6 C7 1_555 1_555
C8 H7 1_555 1_555
H8 C8 1_555 1_555
C9 C8 1_555 1_555
C10 C9 1_555 1_555
C11 C4 1_555 1_555
N1 C7 1_555 1_555
H9 N1 1_555 1_555
H10 N1 1_555 1_555
O1 C11 1_555 1_555
O2 C11 1_555 1_555
H11 O2 1_555 1_555
C12 C9 1_555 1_555
C13 C14 1_555 1_555
C14 C17 1_555 1_555
C15 C16 1_555 1_555
C16 C23 1_555 1_555
C17 C15 1_555 1_555
C18 C13 1_555 1_555
C19 C15 1_555 1_555
H12 C19 1_555 1_555
H13 C19 1_555 1_555
C20 C21 1_555 1_555
C21 C22 1_555 1_555
C22 C24 1_555 1_555
N2 C19 1_555 1_555
H14 N2 1_555 1_555
H15 N2 1_555 1_555
O3 C18 1_555 1_555
H16 O3 1_555 1_555
O4 C18 1_555 1_555
C23 C13 1_555 1_555
C24 C21 1_555 1_555
C25 C20 1_555 1_555
C26 N9 1_555 1_555
C27 H17 1_555 1_555
H18 C27 1_555 1_555
C28 N7 1_555 1_555
C29 H19 1_555 1_555
H20 C29 1_555 1_555
C30 N5 1_555 1_555
C31 H21 1_555 1_555
H22 C31 1_555 1_555
C32 N3 1_555 1_555
C33 H23 1_555 1_555
H24 C33 1_555 1_555
C34 H25 1_555 1_555
C35 C34 1_555 1_555
H26 C35 1_555 1_555
C36 H27 1_555 1_555
C37 C36 1_555 1_555
H28 C37 1_555 1_555
C38 H29 1_555 1_555
C39 C38 1_555 1_555
H30 C39 1_555 1_555
C40 N10 1_555 1_555
C41 H31 1_555 1_555
H32 C41 1_555 1_555
C42 N12 1_555 1_555
C43 H33 1_555 1_555
H34 C43 1_555 1_555
N3 C33 1_555 1_555
N4 C31 1_555 1_555
N5 C31 1_555 1_555
N6 C29 1_555 1_555
N7 C29 1_555 1_555
N8 C27 1_555 1_555
N9 C27 1_555 1_555
N10 C39 1_555 1_555
N11 C38 1_555 1_555
N12 C37 1_555 1_555
N13 C36 1_555 1_555
N14 C35 1_555 1_555
O5 C26 1_555 1_555
O6 C28 1_555 1_555
O7 C30 1_555 1_555
O8 C32 1_555 1_555
O9 C40 1_555 1_555
O10 C42 1_555 1_555
C44 N20 1_555 1_555
C45 H35 1_555 1_555
H36 C45 1_555 1_555
C46 N18 1_555 1_555
C47 H37 1_555 1_555
H38 C47 1_555 1_555
C48 N16 1_555 1_555
C49 H39 1_555 1_555
H40 C49 1_555 1_555
C50 H41 1_555 1_555
C51 H42 1_555 1_555
C52 C51 1_555 1_555
H43 C52 1_555 1_555
C53 H44 1_555 1_555
C54 C53 1_555 1_555
H45 C54 1_555 1_555
C55 H46 1_555 1_555
C56 N21 1_555 1_555
C57 H47 1_555 1_555
H48 C57 1_555 1_555
C58 N22 1_555 1_555
C59 H49 1_555 1_555
H50 C59 1_555 1_555
C60 N24 1_555 1_555
C61 H51 1_555 1_555
H52 C61 1_555 1_555
N15 C49 1_555 1_555
N16 C49 1_555 1_555
N17 C47 1_555 1_555
N18 C47 1_555 1_555
N19 C45 1_555 1_555
N20 C45 1_555 1_555
N21 C55 1_555 1_555
N22 C54 1_555 1_555
N23 C53 1_555 1_555
N24 C52 1_555 1_555
N25 C51 1_555 1_555
N26 C50 1_555 1_555
O11 C44 1_555 1_555
O12 C46 1_555 1_555
O13 C48 1_555 1_555
O14 C60 1_555 1_555
O15 C58 1_555 1_555
O16 C56 1_555 1_555
C1A C2A 1_555 1_555
C2A H1A 1_555 1_555
C3A C2A 1_555 1_555
H2A C3A 1_555 1_555
C4A C3A 1_555 1_555
C5A C4A 1_555 1_555
H3A C5A 1_555 1_555
C6A C1A 1_555 1_555
H4A C6A 1_555 1_555
C7A C1A 1_555 1_555
H5A C7A 1_555 1_555
H6A C7A 1_555 1_555
C8A H7A 1_555 1_555
H8A C8A 1_555 1_555
C9A C8A 1_555 1_555
C10A C12 1_555 1_555
C11A C4A 1_555 1_555
N1A C7A 1_555 1_555
H9A N1A 1_555 1_555
H10A N1A 1_555 1_555
O1A C11A 1_555 1_555
O2A C11A 1_555 1_555
H11A O2A 1_555 1_555
C12A C10 1_555 1_555
C13A C14A 1_555 1_555
C14A C17A 1_555 1_555
C15A C16A 1_555 1_555
C16A C23A 1_555 1_555
C17A C15A 1_555 1_555
C18A C13A 1_555 1_555
C19A C15A 1_555 1_555
H12A C19A 1_555 1_555
H13A C19A 1_555 1_555
C20A C21A 1_555 1_555
C21A C22A 1_555 1_555
C22A C24 1_555 1_555
N2A C19A 1_555 1_555
H14A N2A 1_555 1_555
H15A N2A 1_555 1_555
O3A C18A 1_555 1_555
H16A O3A 1_555 1_555
O4A C18A 1_555 1_555
C23A C13A 1_555 1_555
C24A C22 1_555 1_555
C25A C20A 1_555 1_555
C26A N14 1_555 1_555
C27A H17A 1_555 1_555
H18A C27A 1_555 1_555
C28A N7A 1_555 1_555
C29A H19A 1_555 1_555
H20A C29A 1_555 1_555
C30A N5A 1_555 1_555
C31A H21A 1_555 1_555
H22A C31A 1_555 1_555
C32A N3A 1_555 1_555
C33A N10 1_555 1_555
H23A C33A 1_555 1_555
H24A C33A 1_555 1_555
C34A N9 1_555 1_555
H25A C34A 1_555 1_555
C35A C34A 1_555 1_555
H26A C35A 1_555 1_555
C36A H27A 1_555 1_555
C37A C36A 1_555 1_555
H28A C37A 1_555 1_555
C38A H29A 1_555 1_555
C39A C38A 1_555 1_555
H30A C39A 1_555 1_555
C40A N10A 1_555 1_555
C41A H31A 1_555 1_555
H32A C41A 1_555 1_555
C42A N12A 1_555 1_555
C43A H33A 1_555 1_555
H34A C43A 1_555 1_555
N3A C33A 1_555 1_555
N4A C31A 1_555 1_555
N5A C31A 1_555 1_555
N6A C29A 1_555 1_555
N7A C29A 1_555 1_555
N8A C27A 1_555 1_555
N9A C34 1_555 1_555
N10A C33 1_555 1_555
N11A C38A 1_555 1_555
N12A C37A 1_555 1_555
N13A C36A 1_555 1_555
N14A C26 1_555 1_555
O5A C26A 1_555 1_555
O6A C28A 1_555 1_555
O7A C30A 1_555 1_555
O8A C32A 1_555 1_555
O9A C40A 1_555 1_555
O10A C42A 1_555 1_555
C44A N26 1_555 1_555
C45A H35A 1_555 1_555
H36A C45A 1_555 1_555
C46A N18A 1_555 1_555
C47A H37A 1_555 1_555
H38A C47A 1_555 1_555
C48A N16A 1_555 1_555
C49A H39A 1_555 1_555
H40A C49A 1_555 1_555
C50A C55 1_555 1_555
H41A C50A 1_555 1_555
C51A H42A 1_555 1_555
C52A C51A 1_555 1_555
H43A C52A 1_555 1_555
C53A H44A 1_555 1_555
C54A C53A 1_555 1_555
H45A C54A 1_555 1_555
C55A C50 1_555 1_555
H46A C55A 1_555 1_555
C56A N15 1_555 1_555
C57A H47A 1_555 1_555
H48A C57A 1_555 1_555
C58A N22A 1_555 1_555
C59A H49A 1_555 1_555
H50A C59A 1_555 1_555
C60A N24A 1_555 1_555
C61A H51A 1_555 1_555
H52A C61A 1_555 1_555
N15A C56 1_555 1_555
N16A C49A 1_555 1_555
N17A C47A 1_555 1_555
N18A C47A 1_555 1_555
N19A C45A 1_555 1_555
N20A C44A 1_555 1_555
N21A C55A 1_555 1_555
N22A C54A 1_555 1_555
N23A C53A 1_555 1_555
N24A C52A 1_555 1_555
N25A C51A 1_555 1_555
N26A C44 1_555 1_555
O11A C44A 1_555 1_555
O12A C46A 1_555 1_555
O13A C48A 1_555 1_555
O14A C60A 1_555 1_555
O15A C58A 1_555 1_555
O16A C56A 1_555 1_555
C5 C6 1_555 1_555
C8 N1 1_555 1_555
C10 C12 1_555 1_555
C20 N2 1_555 1_555
C21 C25 1_555 1_555
C22 C25 1_555 1_555
C24 C25 1_555 1_555
C28 N8 1_555 1_555
C30 N6 1_555 1_555
C32 N4 1_555 1_555
C34 N3 1_555 1_555
C35 N4 1_555 1_555
C36 N5 1_555 1_555
C37 N6 1_555 1_555
C38 N7 1_555 1_555
C39 N8 1_555 1_555
C40 N11 1_555 1_555
C41 N11 1_555 1_555
C41 N12 1_555 1_555
C42 N13 1_555 1_555
C43 N13 1_555 1_555
C43 N14 1_555 1_555
C46 N19 1_555 1_555
C48 N17 1_555 1_555
C50 N15 1_555 1_555
C51 N16 1_555 1_555
C52 N17 1_555 1_555
C53 N18 1_555 1_555
C54 N19 1_555 1_555
C55 N20 1_555 1_555
C57 N21 1_555 1_555
C57 N22 1_555 1_555
C58 N23 1_555 1_555
C59 N23 1_555 1_555
C59 N24 1_555 1_555
C60 N25 1_555 1_555
C61 N25 1_555 1_555
C61 N26 1_555 1_555
C5A C6A 1_555 1_555
C8A N1A 1_555 1_555
C9A C10A 1_555 1_555
C9A C12A 1_555 1_555
C10A C12A 1_555 1_555
C20A N2A 1_555 1_555
C21A C24A 1_555 1_555
C21A C25A 1_555 1_555
C22A C24A 1_555 1_555
C22A C25A 1_555 1_555
C24A C25A 1_555 1_555
C26A N9A 1_555 1_555
C27A N9A 1_555 1_555
C28A N8A 1_555 1_555
C30A N6A 1_555 1_555
C32A N4A 1_555 1_555
C34A N3A 1_555 1_555
C35A N4A 1_555 1_555
C35A N14A 1_555 1_555
C36A N5A 1_555 1_555
C37A N6A 1_555 1_555
C38A N7A 1_555 1_555
C39A N8A 1_555 1_555
C39A N10A 1_555 1_555
C40A N11A 1_555 1_555
C41A N11A 1_555 1_555
C41A N12A 1_555 1_555
C42A N13A 1_555 1_555
C43A N13A 1_555 1_555
C43A N14A 1_555 1_555
C45A N20A 1_555 1_555
C46A N19A 1_555 1_555
C48A N17A 1_555 1_555
C49A N15A 1_555 1_555
C50A N15A 1_555 1_555
C50A N26A 1_555 1_555
C51A N16A 1_555 1_555
C52A N17A 1_555 1_555
C53A N18A 1_555 1_555
C54A N19A 1_555 1_555
C55A N20A 1_555 1_555
C56A N21A 1_555 1_555
C57A N21A 1_555 1_555
C57A N22A 1_555 1_555
C58A N23A 1_555 1_555
C59A N23A 1_555 1_555
C59A N24A 1_555 1_555
C60A N25A 1_555 1_555
C61A N25A 1_555 1_555
C61A N26A 1_555 1_555

#END
