
#######################################################################
#
#                 Cambridge Crystallographic Data Centre
#                                CCDC 
#
#######################################################################
#
# If this CIF has been generated from an entry in the Cambridge 
# Structural Database, then it will include bibliographic, chemical, 
# crystal, experimental, refinement or atomic coordinate data resulting 
# from the CCDC's data processing and validation procedures.
#
#######################################################################

data_ZIFQEN
_chemical_formula_moiety         'C27 H20 N1 O1 1+,Br1 1-'
_chemical_name_systematic        '2,3,4,5-tetraphenyl-1,3-oxazol-3-ium bromide'
_symmetry_cell_setting           monoclinic
_symmetry_space_group_name_H-M   'P 21/c'
_symmetry_Int_Tables_number      14
_space_group_name_Hall           '-P 2ybc'
loop_
_symmetry_equiv_pos_site_id
_symmetry_equiv_pos_as_xyz
1 x,y,z
2 -x,1/2+y,1/2-z
3 -x,-y,-z
4 x,1/2-y,1/2+z
_cell_length_a                   17.168(7)
_cell_length_b                   10.100(4)
_cell_length_c                   13.276(5)
_cell_angle_alpha                90
_cell_angle_beta                 109.827(6)
_cell_angle_gamma                90
_cell_volume                     2165.55
_exptl_crystal_colour            colorless
_exptl_crystal_description       plate
_cell_formula_units_Z            4
loop_
_atom_site_label
_atom_site_type_symbol
_atom_site_fract_x
_atom_site_fract_y
_atom_site_fract_z
O1 O 0.1569(2) 0.6647(3) 0.4585(3)
N1 N 0.2643(3) 0.7887(4) 0.4778(3)
C1 C 0.2938(3) 0.6688(5) 0.5292(4)
C2 C 0.2268(3) 0.5945(5) 0.5170(4)
C3 C 0.1825(3) 0.7834(5) 0.4369(4)
C4 C 0.1209(3) 0.8802(5) 0.3786(4)
C5 C 0.0498(3) 0.8942(5) 0.4032(5)
H1 H 0.041409 0.840600 0.457441
C6 C -0.0093(4) 0.9855(5) 0.3496(5)
H2 H -0.058209 0.995456 0.367215
C7 C 0.0028(4) 1.0626(6) 0.2700(5)
H3 H -0.037910 1.125329 0.232535
C8 C 0.0724(4) 1.0487(7) 0.2458(5)
H4 H 0.080484 1.103099 0.191820
C9 C 0.1326(4) 0.9564(6) 0.2980(5)
H5 H 0.180788 0.945739 0.278826
C10 C 0.3139(3) 0.9019(5) 0.4693(4)
C11 C 0.3046(3) 1.0195(5) 0.5186(4)
H6 H 0.269125 1.023718 0.559948
C12 C 0.3479(3) 1.1296(5) 0.5063(4)
H7 H 0.341210 1.211009 0.538216
C13 C 0.4008(4) 1.1228(5) 0.4481(5)
H8 H 0.430470 1.199165 0.440239
C14 C 0.4106(3) 1.0026(6) 0.4006(4)
H9 H 0.447651 0.997595 0.361312
C15 C 0.3669(3) 0.8918(5) 0.4105(4)
H10 H 0.372896 0.810395 0.378016
C16 C 0.3809(3) 0.6388(5) 0.5871(4)
C17 C 0.4298(3) 0.7239(5) 0.6667(4)
H11 H 0.406848 0.803535 0.682527
C18 C 0.5114(4) 0.6922(6) 0.7222(5)
H12 H 0.544886 0.751269 0.774830
C19 C 0.5448(4) 0.5736(6) 0.7013(5)
H13 H 0.600415 0.550617 0.740837
C20 C 0.4964(4) 0.4902(6) 0.6227(5)
H14 H 0.519204 0.410095 0.607548
C21 C 0.4153(4) 0.5217(5) 0.5661(5)
H15 H 0.382626 0.463134 0.512393
C22 C 0.2125(3) 0.4618(5) 0.5525(4)
C23 C 0.2597(3) 0.4157(6) 0.6528(4)
H16 H 0.301252 0.470751 0.699453
C24 C 0.2469(4) 0.2906(6) 0.6855(5)
H17 H 0.281173 0.258444 0.753265
C25 C 0.1850(4) 0.2125(6) 0.6207(5)
H18 H 0.175350 0.127577 0.644981
C26 C 0.1366(4) 0.2556(6) 0.5208(5)
H19 H 0.094326 0.200043 0.475949
C27 C 0.1496(4) 0.3807(5) 0.4854(5)
H20 H 0.116358 0.410970 0.416483
Br1 Br 0.23406(4) 0.63803(6) 0.22926(5)
loop_
_geom_bond_atom_site_label_1
_geom_bond_atom_site_label_2
_geom_bond_site_symmetry_1
_geom_bond_site_symmetry_2
O1 C2 1_555 1_555
N1 C1 1_555 1_555
C1 C2 1_555 1_555
C2 C22 1_555 1_555
C3 O1 1_555 1_555
C4 C3 1_555 1_555
C5 C4 1_555 1_555
H1 C5 1_555 1_555
C6 C5 1_555 1_555
H2 C6 1_555 1_555
C7 C6 1_555 1_555
H3 C7 1_555 1_555
C8 C7 1_555 1_555
H4 C8 1_555 1_555
C9 C4 1_555 1_555
H5 C9 1_555 1_555
C10 N1 1_555 1_555
C11 C10 1_555 1_555
H6 C11 1_555 1_555
C12 C11 1_555 1_555
H7 C12 1_555 1_555
C13 C12 1_555 1_555
H8 C13 1_555 1_555
C14 C13 1_555 1_555
H9 C14 1_555 1_555
C15 C10 1_555 1_555
H10 C15 1_555 1_555
C16 C1 1_555 1_555
C17 C16 1_555 1_555
H11 C17 1_555 1_555
C18 C17 1_555 1_555
H12 C18 1_555 1_555
C19 C18 1_555 1_555
H13 C19 1_555 1_555
C20 C19 1_555 1_555
H14 C20 1_555 1_555
C21 C16 1_555 1_555
H15 C21 1_555 1_555
C22 C23 1_555 1_555
C23 H16 1_555 1_555
C24 C23 1_555 1_555
H17 C24 1_555 1_555
C25 C24 1_555 1_555
H18 C25 1_555 1_555
C26 C25 1_555 1_555
H19 C26 1_555 1_555
C27 C22 1_555 1_555
H20 C27 1_555 1_555
N1 C3 1_555 1_555
C8 C9 1_555 1_555
C14 C15 1_555 1_555
C20 C21 1_555 1_555
C26 C27 1_555 1_555

#END
