
#######################################################################
#
#                 Cambridge Crystallographic Data Centre
#                                CCDC 
#
#######################################################################
#
# If this CIF has been generated from an entry in the Cambridge 
# Structural Database, then it will include bibliographic, chemical, 
# crystal, experimental, refinement or atomic coordinate data resulting 
# from the CCDC's data processing and validation procedures.
#
#######################################################################

data_ZIFVER
_chemical_formula_moiety         'C20 H13 N1 O2'
_chemical_name_systematic        
8-Methylisochromeno[3,4-a]carbazol-13(11H)-one
_symmetry_cell_setting           monoclinic
_symmetry_space_group_name_H-M   'P 21/c'
_symmetry_Int_Tables_number      14
_space_group_name_Hall           '-P 2ybc'
loop_
_symmetry_equiv_pos_site_id
_symmetry_equiv_pos_as_xyz
1 x,y,z
2 -x,1/2+y,1/2-z
3 -x,-y,-z
4 x,1/2-y,1/2+z
_cell_length_a                   16.226(4)
_cell_length_b                   6.7409(17)
_cell_length_c                   14.225(4)
_cell_angle_alpha                90
_cell_angle_beta                 114.231(4)
_cell_angle_gamma                90
_cell_volume                     1418.82
_exptl_crystal_colour            colorless
_exptl_crystal_description       plate
_cell_formula_units_Z            4
loop_
_atom_site_label
_atom_site_type_symbol
_atom_site_fract_x
_atom_site_fract_y
_atom_site_fract_z
C1 C 0.36618(10) -0.2801(2) 0.36085(11)
C2 C 0.31356(10) -0.1174(2) 0.29582(11)
C3 C 0.22075(11) -0.1436(3) 0.24328(12)
H1 H 0.1932 -0.2625 0.2520
C4 C 0.16899(12) 0.0030(3) 0.17864(12)
H2 H 0.1056 -0.0146 0.1421
C5 C 0.20979(12) 0.1767(3) 0.16718(12)
H3 H 0.1739 0.2777 0.1225
C6 C 0.30121(12) 0.2048(2) 0.21942(12)
H4 H 0.3278 0.3253 0.2109
C7 C 0.35586(11) 0.0576(2) 0.28532(11)
C8 C 0.45353(11) 0.0732(2) 0.33912(11)
C9 C 0.50398(12) 0.2425(2) 0.33580(12)
H5 H 0.4729 0.3568 0.2993
C10 C 0.59638(12) 0.2460(2) 0.38375(12)
H6 H 0.6288 0.3609 0.3801
C11 C 0.64264(11) 0.0783(2) 0.43823(11)
C12 C 0.59321(11) -0.0897(2) 0.44388(11)
C13 C 0.49989(10) -0.0902(2) 0.39522(10)
C14 C 0.73835(10) -0.1669(3) 0.53350(11)
C15 C 0.81910(11) -0.2607(3) 0.59233(12)
H7 H 0.8203 -0.3915 0.6177
C16 C 0.89804(12) -0.1564(3) 0.61263(13)
H8 H 0.9542 -0.2185 0.6522
C17 C 0.89824(12) 0.0379(3) 0.57695(13)
C18 C 0.81728(12) 0.1290(3) 0.51839(12)
H9 H 0.8166 0.2600 0.4935
C19 C 0.73606(11) 0.0279(3) 0.49562(11)
C20 C 0.98660(14) 0.1450(4) 0.60334(16)
H10 H 0.9864 0.2083 0.5413
H11 H 1.0365 0.0498 0.6303
H12 H 0.9942 0.2463 0.6556
N1 N 0.65091(8) -0.23675(19) 0.50037(9)
H13 H 0.6349 -0.3549 0.5132
O1 O 0.45766(7) -0.26181(15) 0.40516(8)
O2 O 0.33434(7) -0.43224(16) 0.37652(8)
loop_
_geom_bond_atom_site_label_1
_geom_bond_atom_site_label_2
_geom_bond_site_symmetry_1
_geom_bond_site_symmetry_2
C1 C2 1_555 1_555
C2 C3 1_555 1_555
C3 H1 1_555 1_555
C4 C3 1_555 1_555
H2 C4 1_555 1_555
C5 C4 1_555 1_555
H3 C5 1_555 1_555
C6 C5 1_555 1_555
H4 C6 1_555 1_555
C7 C2 1_555 1_555
C8 C7 1_555 1_555
C9 C8 1_555 1_555
H5 C9 1_555 1_555
C10 C9 1_555 1_555
H6 C10 1_555 1_555
C11 C10 1_555 1_555
C12 C11 1_555 1_555
C13 C8 1_555 1_555
C14 C15 1_555 1_555
C15 H7 1_555 1_555
C16 C15 1_555 1_555
H8 C16 1_555 1_555
C17 C16 1_555 1_555
C18 C17 1_555 1_555
H9 C18 1_555 1_555
C19 C11 1_555 1_555
C20 C17 1_555 1_555
H10 C20 1_555 1_555
H11 C20 1_555 1_555
H12 C20 1_555 1_555
N1 C12 1_555 1_555
H13 N1 1_555 1_555
O1 C1 1_555 1_555
O2 C1 1_555 1_555
C6 C7 1_555 1_555
C12 C13 1_555 1_555
C13 O1 1_555 1_555
C14 C19 1_555 1_555
C14 N1 1_555 1_555
C18 C19 1_555 1_555

#END
