
#######################################################################
#
#                 Cambridge Crystallographic Data Centre
#                                CCDC 
#
#######################################################################
#
# If this CIF has been generated from an entry in the Cambridge 
# Structural Database, then it will include bibliographic, chemical, 
# crystal, experimental, refinement or atomic coordinate data resulting 
# from the CCDC's data processing and validation procedures.
#
#######################################################################

data_ZIGKEI01
_chemical_formula_moiety         'C6 H18 N2 2+,2(H1 O4 S1 1-)'
_chemical_name_systematic        
'N^1^,N^1^,N^2^,N^2^-tetramethylethane-1,2-diaminium bis(hydrogen sulfate)'
_symmetry_cell_setting           triclinic
_symmetry_space_group_name_H-M   'P -1'
_symmetry_Int_Tables_number      2
_space_group_name_Hall           '-P 1'
loop_
_symmetry_equiv_pos_site_id
_symmetry_equiv_pos_as_xyz
1 x,y,z
2 -x,-y,-z
_cell_length_a                   8.373(3)
_cell_length_b                   10.576(4)
_cell_length_c                   16.621(6)
_cell_angle_alpha                100.707(4)
_cell_angle_beta                 103.742(4)
_cell_angle_gamma                98.493(4)
_cell_volume                     1376.15
_exptl_crystal_colour            colorless
_exptl_crystal_description       block
_cell_formula_units_Z            4
loop_
_atom_site_label
_atom_site_type_symbol
_atom_site_fract_x
_atom_site_fract_y
_atom_site_fract_z
N1 N 0.6797(5) 0.5029(4) 0.2639(2)
H1 H 0.5568 0.4832 0.2591
N2 N 0.8060(4) 0.6818(3) 0.4966(2)
H2 H 0.9258 0.6762 0.5011
C1 C 0.7431(7) 0.3792(5) 0.2710(3)
H3 H 0.6725 0.3067 0.2247
H4 H 0.7392 0.3592 0.3258
H5 H 0.8591 0.3908 0.2671
C2 C 0.6985(7) 0.5418(5) 0.1841(3)
H6 H 0.8179 0.5681 0.1882
H7 H 0.6427 0.6156 0.1763
H8 H 0.6471 0.4671 0.1354
C3 C 0.7587(6) 0.6145(4) 0.3397(3)
H9 H 0.7278 0.6967 0.3266
H10 H 0.8824 0.6259 0.3532
C4 C 0.7003(6) 0.5880(4) 0.4163(3)
H11 H 0.5818 0.5967 0.4078
H12 H 0.7069 0.4969 0.4211
C5 C 0.7906(7) 0.8219(4) 0.4975(3)
H13 H 0.8236 0.8473 0.4491
H14 H 0.8641 0.8793 0.5507
H15 H 0.6741 0.8302 0.4934
C6 C 0.7630(6) 0.6417(5) 0.5724(3)
H16 H 0.7807 0.5522 0.5727
H17 H 0.6452 0.6446 0.5691
H18 H 0.8351 0.7022 0.6248
N3 N 0.3344(4) 0.9966(3) 0.2364(2)
H19 H 0.4559 1.0073 0.2379
N4 N 0.1805(4) 0.8107(3) 0.0047(2)
H20 H 0.0608 0.8124 0.0035
C7 C 0.3161(6) 0.9567(5) 0.3164(3)
H21 H 0.3566 0.8748 0.3192
H22 H 0.1976 0.9432 0.3162
H23 H 0.3821 1.0259 0.3659
C8 C 0.2858(7) 1.1264(4) 0.2330(3)
H24 H 0.2992 1.1505 0.1805
H25 H 0.3580 1.1936 0.2822
H26 H 0.1685 1.1203 0.2341
C9 C 0.2391(6) 0.8887(4) 0.1611(3)
H27 H 0.1172 0.8855 0.1519
H28 H 0.2624 0.8034 0.1719
C10 C 0.2893(6) 0.9109(4) 0.0814(3)
H29 H 0.2774 1.0001 0.0739
H30 H 0.4082 0.9045 0.0880
C11 C 0.2075(6) 0.6742(5) 0.0080(3)
H31 H 0.1876 0.6533 0.0603
H32 H 0.3230 0.6690 0.0073
H33 H 0.1293 0.6111 -0.0415
C12 C 0.2086(7) 0.8452(5) -0.0747(3)
H34 H 0.3240 0.8410 -0.0762
H35 H 0.1901 0.9344 -0.0756
H36 H 0.1301 0.7829 -0.1244
S1 S 1.27713(13) 0.74905(10) 0.50423(7)
O1 O 1.2264(6) 0.8858(3) 0.5088(2)
H37 H 1.2601 0.9300 0.5593
O2 O 1.4073(4) 0.7584(4) 0.5805(2)
O3 O 1.3334(5) 0.7254(3) 0.4268(2)
O4 O 1.1269(4) 0.6551(3) 0.4969(2)
S2 S 0.28750(13) 0.24845(10) 0.00259(7)
O5 O 0.1369(4) 0.1536(3) -0.0039(2)
O6 O 0.4213(4) 0.2554(4) 0.0769(2)
O7 O 0.2361(5) 0.3857(3) 0.0099(2)
H38 H 0.2634 0.4257 0.0613
O8 O 0.3403(5) 0.2294(3) -0.0755(2)
S3 S 0.79046(15) 1.01383(13) 0.27266(7)
O9 O 0.6519(4) 1.0424(4) 0.2137(2)
O10 O 0.8600(5) 0.9070(4) 0.2236(2)
H39 H 0.7824 0.8414 0.1990
O11 O 0.7467(7) 0.9696(5) 0.3427(3)
O12 O 0.9305(5) 1.1267(5) 0.3044(3)
O13 O 0.3477(4) 0.4418(4) 0.2753(2)
S4 S 0.24950(16) 0.51735(13) 0.22750(7)
O14 O 0.1410(4) 0.5790(4) 0.2810(2)
H40 H 0.2029 0.6378 0.3224
O15 O 0.3659(6) 0.6326(5) 0.2203(3)
O16 O 0.1341(6) 0.4540(6) 0.1487(3)
loop_
_geom_bond_atom_site_label_1
_geom_bond_atom_site_label_2
_geom_bond_site_symmetry_1
_geom_bond_site_symmetry_2
N1 H1 1_555 1_555
N2 H2 1_555 1_555
C1 N1 1_555 1_555
H3 C1 1_555 1_555
H4 C1 1_555 1_555
H5 C1 1_555 1_555
C2 N1 1_555 1_555
H6 C2 1_555 1_555
H7 C2 1_555 1_555
H8 C2 1_555 1_555
C3 N1 1_555 1_555
H9 C3 1_555 1_555
H10 C3 1_555 1_555
C4 N2 1_555 1_555
H11 C4 1_555 1_555
H12 C4 1_555 1_555
C5 N2 1_555 1_555
H13 C5 1_555 1_555
H14 C5 1_555 1_555
H15 C5 1_555 1_555
C6 N2 1_555 1_555
H16 C6 1_555 1_555
H17 C6 1_555 1_555
H18 C6 1_555 1_555
N3 H19 1_555 1_555
N4 H20 1_555 1_555
C7 N3 1_555 1_555
H21 C7 1_555 1_555
H22 C7 1_555 1_555
H23 C7 1_555 1_555
C8 N3 1_555 1_555
H24 C8 1_555 1_555
H25 C8 1_555 1_555
H26 C8 1_555 1_555
C9 N3 1_555 1_555
H27 C9 1_555 1_555
H28 C9 1_555 1_555
C10 N4 1_555 1_555
H29 C10 1_555 1_555
H30 C10 1_555 1_555
C11 N4 1_555 1_555
H31 C11 1_555 1_555
H32 C11 1_555 1_555
H33 C11 1_555 1_555
C12 N4 1_555 1_555
H34 C12 1_555 1_555
H35 C12 1_555 1_555
H36 C12 1_555 1_555
S1 O1 1_555 1_555
O1 H37 1_555 1_555
O2 S1 1_555 1_555
O3 S1 1_555 1_555
O4 S1 1_555 1_555
S2 O5 1_555 1_555
O6 S2 1_555 1_555
O7 S2 1_555 1_555
H38 O7 1_555 1_555
O8 S2 1_555 1_555
S3 O9 1_555 1_555
O10 S3 1_555 1_555
H39 O10 1_555 1_555
O11 S3 1_555 1_555
O12 S3 1_555 1_555
O13 S4 1_555 1_555
S4 O14 1_555 1_555
O14 H40 1_555 1_555
O15 S4 1_555 1_555
O16 S4 1_555 1_555
C3 C4 1_555 1_555
C9 C10 1_555 1_555

#END
