
#######################################################################
#
#                 Cambridge Crystallographic Data Centre
#                                CCDC 
#
#######################################################################
#
# If this CIF has been generated from an entry in the Cambridge 
# Structural Database, then it will include bibliographic, chemical, 
# crystal, experimental, refinement or atomic coordinate data resulting 
# from the CCDC's data processing and validation procedures.
#
#######################################################################

data_ZIJNIR
_chemical_formula_moiety         'C17 H16 B1 F2 N3'
_chemical_name_systematic        
12-Dimethylamino-2,2-difluoro-8-phenyl-1\l^5^,3-diaza-2\l^4^-boratricyclo[7.3.0.0^3,7^]dodeca-1(12),4,6,8,10-pentaen-1-ylium
_symmetry_cell_setting           monoclinic
_symmetry_space_group_name_H-M   'P 21/c'
_symmetry_Int_Tables_number      14
_space_group_name_Hall           '-P 2ybc'
loop_
_symmetry_equiv_pos_site_id
_symmetry_equiv_pos_as_xyz
1 x,y,z
2 -x,1/2+y,1/2-z
3 -x,-y,-z
4 x,1/2-y,1/2+z
_cell_length_a                   7.8033(6)
_cell_length_b                   25.524(2)
_cell_length_c                   9.9776(5)
_cell_angle_alpha                90
_cell_angle_beta                 128.671(4)
_cell_angle_gamma                90
_cell_volume                     1551.54
_exptl_crystal_colour            colorless
_exptl_crystal_description       block
_cell_formula_units_Z            4
loop_
_atom_site_label
_atom_site_type_symbol
_atom_site_fract_x
_atom_site_fract_y
_atom_site_fract_z
F1 F -0.28223(17) 0.91338(5) 0.54009(14)
F2 F -0.0433(2) 0.98113(4) 0.67169(16)
N1 N 0.0902(2) 0.90034(6) 0.65707(18)
N2 N -0.0100(2) 0.91017(5) 0.84906(17)
N3 N -0.2640(3) 0.95619(7) 0.8700(2)
C1 C 0.1083(4) 0.91003(9) 0.5324(3)
H1 H 0.0217 0.9335 0.4423
C2 C 0.2720(4) 0.88033(10) 0.5591(3)
H2 H 0.3155 0.8798 0.4910
C3 C 0.3621(3) 0.85096(8) 0.7062(2)
H3 H 0.4772 0.8272 0.7554
C4 C 0.2477(3) 0.86380(7) 0.7662(2)
C5 C 0.2796(3) 0.84981(6) 0.9186(2)
C6 C 0.4562(3) 0.81223(7) 1.0379(2)
C7 C 0.4630(4) 0.76322(7) 0.9807(3)
H4 H 0.3519 0.7533 0.8678
C8 C 0.6331(5) 0.72935(9) 1.0903(4)
H5 H 0.6366 0.6966 1.0513
C9 C 0.7971(5) 0.74379(12) 1.2564(4)
H6 H 0.9126 0.7209 1.3295
C10 C 0.7929(4) 0.79204(11) 1.3165(3)
H7 H 0.9040 0.8015 1.4300
C11 C 0.6232(3) 0.82612(8) 1.2073(2)
H8 H 0.6203 0.8587 1.2474
C12 C 0.1544(3) 0.87210(6) 0.9555(2)
C13 C 0.1508(3) 0.86084(7) 1.0927(2)
H9 H 0.2419 0.8372 1.1811
C14 C -0.0056(3) 0.88989(8) 1.0739(3)
H10 H -0.0427 0.8897 1.1462
C15 C -0.1061(3) 0.92141(7) 0.9228(2)
C16 C -0.3699(4) 0.99063(10) 0.7212(4)
H11 H -0.2601 1.0099 0.7266
H12 H -0.4650 1.0146 0.7208
H13 H -0.4545 0.9700 0.6181
C17 C -0.3488(4) 0.96200(12) 0.9644(3)
H14 H -0.3107 0.9317 1.0349
H15 H -0.5057 0.9655 0.8847
H16 H -0.2860 0.9926 1.0356
B1 B -0.0669(3) 0.92741(8) 0.6751(3)
loop_
_geom_bond_atom_site_label_1
_geom_bond_atom_site_label_2
_geom_bond_site_symmetry_1
_geom_bond_site_symmetry_2
F1 B1 1_555 1_555
F2 B1 1_555 1_555
N1 C1 1_555 1_555
N2 C12 1_555 1_555
N3 C15 1_555 1_555
C1 H1 1_555 1_555
C2 C1 1_555 1_555
H2 C2 1_555 1_555
C3 C2 1_555 1_555
H3 C3 1_555 1_555
C4 N1 1_555 1_555
C5 C4 1_555 1_555
C6 C5 1_555 1_555
C7 C6 1_555 1_555
H4 C7 1_555 1_555
C8 C7 1_555 1_555
H5 C8 1_555 1_555
C9 C8 1_555 1_555
H6 C9 1_555 1_555
C10 C9 1_555 1_555
H7 C10 1_555 1_555
C11 C6 1_555 1_555
H8 C11 1_555 1_555
C12 C5 1_555 1_555
C13 C12 1_555 1_555
H9 C13 1_555 1_555
C14 C13 1_555 1_555
H10 C14 1_555 1_555
C15 N2 1_555 1_555
C16 N3 1_555 1_555
H11 C16 1_555 1_555
H12 C16 1_555 1_555
H13 C16 1_555 1_555
C17 N3 1_555 1_555
H14 C17 1_555 1_555
H15 C17 1_555 1_555
H16 C17 1_555 1_555
B1 N1 1_555 1_555
N2 B1 1_555 1_555
C3 C4 1_555 1_555
C10 C11 1_555 1_555
C14 C15 1_555 1_555

#END
