
#######################################################################
#
#                 Cambridge Crystallographic Data Centre
#                                CCDC 
#
#######################################################################
#
# If this CIF has been generated from an entry in the Cambridge 
# Structural Database, then it will include bibliographic, chemical, 
# crystal, experimental, refinement or atomic coordinate data resulting 
# from the CCDC's data processing and validation procedures.
#
#######################################################################

data_ZIJQUH
_chemical_formula_moiety         'C11 H10 N6 O1'
_chemical_name_systematic        
N'-[1-(pyrazin-2-yl)ethylidene]pyrazine-2-carbohydrazide
_symmetry_cell_setting           triclinic
_symmetry_space_group_name_H-M   'P -1'
_symmetry_Int_Tables_number      2
_space_group_name_Hall           '-P 1'
loop_
_symmetry_equiv_pos_site_id
_symmetry_equiv_pos_as_xyz
1 x,y,z
2 -x,-y,-z
_cell_length_a                   7.247(8)
_cell_length_b                   8.066(9)
_cell_length_c                   9.770(10)
_cell_angle_alpha                79.706(14)
_cell_angle_beta                 79.526(15)
_cell_angle_gamma                89.518(14)
_cell_volume                     552.372
_exptl_crystal_colour            colorless
_exptl_crystal_description       block
_cell_formula_units_Z            2
loop_
_atom_site_label
_atom_site_type_symbol
_atom_site_fract_x
_atom_site_fract_y
_atom_site_fract_z
O1 O 0.6785(7) 1.0992(5) -0.2460(4)
N1 N 0.7251(7) 0.9311(5) -0.0408(4)
H1 H 0.727205 0.829179 0.003733
N2 N 0.7598(6) 1.0627(5) 0.0231(4)
N3 N 0.8448(8) 1.1337(6) 0.3525(5)
N4 N 0.8932(8) 1.4608(6) 0.1988(5)
N5 N 0.6503(7) 0.6541(6) -0.1374(5)
N6 N 0.6035(8) 0.6692(7) -0.4173(5)
C1 C 0.6874(8) 0.9607(7) -0.1745(6)
C2 C 0.7991(7) 1.0232(6) 0.1484(5)
C3 C 0.8373(8) 1.1694(6) 0.2138(6)
C4 C 0.8768(10) 1.2648(7) 0.4115(6)
H2 H 0.885694 1.246186 0.506743
C5 C 0.8969(9) 1.4251(8) 0.3369(7)
H3 H 0.913865 1.512815 0.383846
C6 C 0.8640(9) 1.3318(6) 0.1381(6)
H4 H 0.861439 1.351038 0.041703
C7 C 0.8116(10) 0.8504(7) 0.2285(6)
H5 H 0.688201 0.799464 0.257749
H6 H 0.865746 0.855539 0.310357
H7 H 0.888978 0.784256 0.169222
C8 C 0.6552(8) 0.8001(6) -0.2275(6)
C9 C 0.6244(9) 0.5172(7) -0.1905(6)
H8 H 0.623360 0.412256 -0.132576
C10 C 0.5992(9) 0.5243(8) -0.3272(6)
H9 H 0.578353 0.424432 -0.357767
C11 C 0.6329(9) 0.8077(8) -0.3658(6)
H10 H 0.638494 0.912245 -0.424953
loop_
_geom_bond_atom_site_label_1
_geom_bond_atom_site_label_2
_geom_bond_site_symmetry_1
_geom_bond_site_symmetry_2
O1 C1 1_555 1_555
N1 H1 1_555 1_555
N2 N1 1_555 1_555
N3 C3 1_555 1_555
N4 C5 1_555 1_555
N5 C8 1_555 1_555
N6 C10 1_555 1_555
C1 N1 1_555 1_555
C2 N2 1_555 1_555
C3 C2 1_555 1_555
C4 N3 1_555 1_555
H2 C4 1_555 1_555
C5 C4 1_555 1_555
H3 C5 1_555 1_555
C6 N4 1_555 1_555
H4 C6 1_555 1_555
C7 C2 1_555 1_555
H5 C7 1_555 1_555
H6 C7 1_555 1_555
H7 C7 1_555 1_555
C8 C1 1_555 1_555
C9 N5 1_555 1_555
H8 C9 1_555 1_555
C10 C9 1_555 1_555
H9 C10 1_555 1_555
C11 N6 1_555 1_555
H10 C11 1_555 1_555
C3 C6 1_555 1_555
C8 C11 1_555 1_555

#END
