
#######################################################################
#
#                 Cambridge Crystallographic Data Centre
#                                CCDC 
#
#######################################################################
#
# If this CIF has been generated from an entry in the Cambridge 
# Structural Database, then it will include bibliographic, chemical, 
# crystal, experimental, refinement or atomic coordinate data resulting 
# from the CCDC's data processing and validation procedures.
#
#######################################################################

data_ZIJVIA
_chemical_formula_moiety         'C22 H18 N2 2+,2(C10 H21 O3 S1 1-),4(H2 O1)'
_chemical_name_systematic        
"1,1'-diphenyl-4,4'-bipyridin-1-ium decane-1-sulfonate tetrahydrate"
_symmetry_cell_setting           triclinic
_symmetry_space_group_name_H-M   'P -1'
_symmetry_Int_Tables_number      2
_space_group_name_Hall           '-P 1'
loop_
_symmetry_equiv_pos_site_id
_symmetry_equiv_pos_as_xyz
1 x,y,z
2 -x,-y,-z
_cell_length_a                   6.29860(10)
_cell_length_b                   9.3042(2)
_cell_length_c                   18.9025(4)
_cell_angle_alpha                83.2337(7)
_cell_angle_beta                 85.7251(7)
_cell_angle_gamma                86.4000(8)
_cell_volume                     1095.34
_exptl_crystal_colour            colorless
_exptl_crystal_description       needle
_cell_formula_units_Z            1
loop_
_atom_site_label
_atom_site_type_symbol
_atom_site_fract_x
_atom_site_fract_y
_atom_site_fract_z
N1 N 0.46823(18) 0.59630(12) -0.10169(6)
C1 C 0.0984(2) 0.52094(15) -0.02166(7)
C2 C 0.6652(2) 0.63488(15) -0.14285(7)
C3 C 1.0407(2) 0.70687(18) -0.21857(9)
H1 H 1.1698 0.7319 -0.2451
C4 C 0.3164(5) 0.6985(3) -0.08082(17)
H2 H 0.3371 0.7979 -0.0960
C5 C 0.1360(5) 0.6622(3) -0.03886(18)
H3 H 0.0394 0.7353 -0.0222
C6 C 0.2428(5) 0.4111(3) -0.04360(17)
H4 H 0.2140 0.3117 -0.0320
C7 C 0.4267(5) 0.4516(3) -0.08225(17)
H5 H 0.5286 0.3787 -0.0961
C8 C 0.7503(7) 0.7592(5) -0.1293(2)
H6 H 0.6822 0.8181 -0.0956
C9 C 0.9414(8) 0.7962(5) -0.1670(2)
H7 H 1.0069 0.8812 -0.1585
C10 C 0.9423(8) 0.5851(6) -0.2279(3)
H8 H 1.0081 0.5236 -0.2609
C11 C 0.7501(7) 0.5458(4) -0.1917(2)
H9 H 0.6818 0.4620 -0.2003
N1A N -0.46823(18) 0.40370(12) 0.10169(6)
C1A C -0.0984(2) 0.47906(15) 0.02166(7)
C2A C -0.6652(2) 0.36512(15) 0.14285(7)
C3A C -1.0407(2) 0.29313(18) 0.21857(9)
H1A H -1.1698 0.2681 0.2451
C4A C -0.3164(5) 0.3015(3) 0.08082(17)
H2A H -0.3371 0.2021 0.0960
C5A C -0.1360(5) 0.3378(3) 0.03886(18)
H3A H -0.0394 0.2647 0.0222
C6A C -0.2428(5) 0.5889(3) 0.04360(17)
H4A H -0.2140 0.6883 0.0320
C7A C -0.4267(5) 0.5484(3) 0.08225(17)
H5A H -0.5286 0.6213 0.0961
C8A C -0.7503(7) 0.2408(5) 0.1293(2)
H6A H -0.6822 0.1819 0.0956
C9A C -0.9414(8) 0.2038(5) 0.1670(2)
H7A H -1.0069 0.1188 0.1585
C10A C -0.9423(8) 0.4149(6) 0.2279(3)
H8A H -1.0081 0.4764 0.2609
C11A C -0.7501(7) 0.4542(4) 0.1917(2)
H9A H -0.6818 0.5380 0.2003
S1 S 0.29797(6) 0.14898(4) -0.20920(2)
O1 O 0.4620(2) 0.24897(15) -0.20675(7)
O2 O 0.3224(2) 0.02189(13) -0.15740(6)
O3 O 0.0845(2) 0.21601(17) -0.20414(7)
C20 C 0.3327(3) 0.08754(18) -0.29509(8)
H18 H 0.2194 0.0209 -0.2998
H19 H 0.3156 0.1717 -0.3318
C21 C 0.5482(3) 0.01013(19) -0.30925(9)
H20 H 0.5638 -0.0757 -0.2734
H21 H 0.6617 0.0758 -0.3034
C22 C 0.5782(3) -0.03849(19) -0.38372(9)
H22 H 0.4636 -0.1032 -0.3898
H23 H 0.5646 0.0475 -0.4196
C23 C 0.7934(3) -0.11785(19) -0.39742(9)
H24 H 0.9074 -0.0521 -0.3922
H25 H 0.8081 -0.2020 -0.3605
C24 C 0.8263(3) -0.17110(19) -0.47070(9)
H26 H 0.7121 -0.2366 -0.4761
H27 H 0.8130 -0.0870 -0.5077
C25 C 1.0411(3) -0.25090(19) -0.48346(10)
H28 H 1.0560 -0.3332 -0.4456
H29 H 1.1551 -0.1844 -0.4793
C26 C 1.0737(3) -0.30833(19) -0.55580(10)
H30 H 0.9590 -0.3742 -0.5602
H31 H 1.0601 -0.2259 -0.5937
C27 C 1.2878(3) -0.3892(2) -0.56821(10)
H32 H 1.4026 -0.3222 -0.5659
H33 H 1.3040 -0.4693 -0.5293
C28 C 1.3154(3) -0.4510(2) -0.63920(11)
H34 H 1.2984 -0.3710 -0.6781
H35 H 1.2012 -0.5184 -0.6414
C29 C 1.5300(4) -0.5311(2) -0.65177(13)
H36 H 1.5524 -0.6066 -0.6119
H37 H 1.6434 -0.4626 -0.6552
H38 H 1.5327 -0.5756 -0.6963
O4 O 0.2396(2) -0.14290(17) 0.10033(7)
H39 H 0.129(2) -0.154(3) 0.1287(11)
H40 H 0.341(2) -0.144(3) 0.1266(11)
O5 O 0.2437(3) 0.09344(19) -0.00850(8)
H41 H 0.272(5) 0.065(3) -0.0495(8)
H42 H 0.245(6) 0.016(2) 0.0203(12)
C12? C 0.3682(5) 0.4853(3) -0.11748(18)
H10? H 0.4223 0.4334 -0.1559
C13? C 0.1850(5) 0.4451(3) -0.07794(18)
H11? H 0.1152 0.3638 -0.0890
C14? C 0.2114(5) 0.6452(3) -0.01024(18)
H12? H 0.1548 0.7058 0.0245
C15? C 0.3988(5) 0.6777(3) -0.04853(17)
H13? H 0.4784 0.7552 -0.0382
C16? C 0.7200(7) 0.7799(5) -0.1574(2)
H14? H 0.6271 0.8548 -0.1406
C17? C 0.9092(8) 0.8142(5) -0.1961(2)
H15? H 0.9454 0.9123 -0.2067
C18? C 0.9962(9) 0.5613(6) -0.2072(3)
H16? H 1.0909 0.4892 -0.2258
C19? C 0.8085(6) 0.5249(5) -0.1679(2)
H17? H 0.7757 0.4261 -0.1576
loop_
_geom_bond_atom_site_label_1
_geom_bond_atom_site_label_2
_geom_bond_site_symmetry_1
_geom_bond_site_symmetry_2
N1 C2 1_555 1_555
C1 C5 1_555 1_555
C2 C8 1_555 1_555
C3 H1 1_555 1_555
C4 N1 1_555 1_555
H2 C4 1_555 1_555
C5 C4 1_555 1_555
H3 C5 1_555 1_555
C6 C1 1_555 1_555
H4 C6 1_555 1_555
C7 N1 1_555 1_555
H5 C7 1_555 1_555
C8 H6 1_555 1_555
C9 C3 1_555 1_555
H7 C9 1_555 1_555
C10 C3 1_555 1_555
H8 C10 1_555 1_555
C11 C2 1_555 1_555
H9 C11 1_555 1_555
S1 O1 1_555 1_555
O2 S1 1_555 1_555
O3 S1 1_555 1_555
C20 S1 1_555 1_555
H18 C20 1_555 1_555
H19 C20 1_555 1_555
C21 C20 1_555 1_555
H20 C21 1_555 1_555
H21 C21 1_555 1_555
C22 C21 1_555 1_555
H22 C22 1_555 1_555
H23 C22 1_555 1_555
C23 C22 1_555 1_555
H24 C23 1_555 1_555
H25 C23 1_555 1_555
C24 C23 1_555 1_555
H26 C24 1_555 1_555
H27 C24 1_555 1_555
C25 C24 1_555 1_555
H28 C25 1_555 1_555
H29 C25 1_555 1_555
C26 C25 1_555 1_555
H30 C26 1_555 1_555
H31 C26 1_555 1_555
C27 C26 1_555 1_555
H32 C27 1_555 1_555
H33 C27 1_555 1_555
C28 C27 1_555 1_555
H34 C28 1_555 1_555
H35 C28 1_555 1_555
C29 C28 1_555 1_555
H36 C29 1_555 1_555
H37 C29 1_555 1_555
H38 C29 1_555 1_555
O4 H39 1_555 1_555
H40 O4 1_555 1_555
O5 H41 1_555 1_555
H42 O5 1_555 1_555
N1A C2A 1_555 1_555
C1A C1 1_555 1_555
C2A C8A 1_555 1_555
C3A H1A 1_555 1_555
C4A N1A 1_555 1_555
H2A C4A 1_555 1_555
C5A C1A 1_555 1_555
H3A C5A 1_555 1_555
C6A C1A 1_555 1_555
H4A C6A 1_555 1_555
C7A N1A 1_555 1_555
H5A C7A 1_555 1_555
C8A H6A 1_555 1_555
C9A C3A 1_555 1_555
H7A C9A 1_555 1_555
C10A C3A 1_555 1_555
H8A C10A 1_555 1_555
C11A C2A 1_555 1_555
H9A C11A 1_555 1_555
C6 C7 1_555 1_555
C8 C9 1_555 1_555
C10 C11 1_555 1_555
C4A C5A 1_555 1_555
C6A C7A 1_555 1_555
C8A C9A 1_555 1_555
C10A C11A 1_555 1_555

#END
