
#######################################################################
#
#                 Cambridge Crystallographic Data Centre
#                                CCDC 
#
#######################################################################
#
# If this CIF has been generated from an entry in the Cambridge 
# Structural Database, then it will include bibliographic, chemical, 
# crystal, experimental, refinement or atomic coordinate data resulting 
# from the CCDC's data processing and validation procedures.
#
#######################################################################

data_ZIJYEY
_chemical_formula_moiety         
'2(Cl1 1-),73(H2 O1),2(Rb1 1+),1.5(C48 H48 N32 O16)'
_chemical_name_systematic        
'di-rubidium dichloride cucurbit[8]uril unknown solvate hydrate'
_symmetry_cell_setting           rhombohedral
_symmetry_space_group_name_H-M   'R -3'
_symmetry_Int_Tables_number      148
_space_group_name_Hall           '-R 3'
loop_
_symmetry_equiv_pos_site_id
_symmetry_equiv_pos_as_xyz
1 x,y,z
2 -y,x-y,z
3 -x+y,-x,z
4 2/3+x,1/3+y,1/3+z
5 2/3-y,1/3+x-y,1/3+z
6 2/3-x+y,1/3-x,1/3+z
7 1/3+x,2/3+y,2/3+z
8 1/3-y,2/3+x-y,2/3+z
9 1/3-x+y,2/3-x,2/3+z
10 -x,-y,-z
11 y,-x+y,-z
12 x-y,x,-z
13 1/3-x,2/3-y,2/3-z
14 1/3+y,2/3-x+y,2/3-z
15 1/3+x-y,2/3+x,2/3-z
16 2/3-x,1/3-y,1/3-z
17 2/3+y,1/3-x+y,1/3-z
18 2/3+x-y,1/3+x,1/3-z
_cell_length_a                   21.879(8)
_cell_length_b                   21.879(8)
_cell_length_c                   52.67(4)
_cell_angle_alpha                90
_cell_angle_beta                 90
_cell_angle_gamma                120
_cell_volume                     21834.8
_exptl_crystal_colour            colorless
_exptl_crystal_description       prism
_cell_formula_units_Z            6
loop_
_atom_site_label
_atom_site_type_symbol
_atom_site_fract_x
_atom_site_fract_y
_atom_site_fract_z
Cl1 Cl 0.3333 0.6667 0.12427(14)
Cl2 Cl -0.3333 0.3333 0.2602(3)
O1 O 0.3333 0.6667 -0.0062(5)
Rb1 Rb -0.3333 0.3333 0.066349(12)
Rb2 Rb 0.3333 0.6667 0.052710(13)
C1 C -0.02133(13) 0.35775(14) 0.09005(5)
C2 C 0.09707(12) 0.41650(13) 0.10284(6)
H1 H 0.1155 0.3968 0.1157
C3 C 0.05777(14) 0.45563(13) 0.11595(6)
H2 H 0.0594 0.4561 0.1347
C4 C 0.15423(13) 0.53723(15) 0.09060(6)
C5 C -0.07088(15) 0.41020(15) 0.11796(6)
H3 H -0.0622 0.4127 0.1363
H4 H -0.1139 0.3653 0.1144
C6 C 0.09202(13) 0.58423(14) 0.11525(8)
H5 H 0.0931 0.5823 0.1338
H6 H 0.1331 0.6286 0.1098
C7 C -0.14402(14) 0.46121(14) 0.09940(6)
C8 C -0.04194(14) 0.53979(15) 0.12031(6)
H7 H -0.0356 0.5383 0.1389
C9 C -0.08344(16) 0.57819(18) 0.11415(7)
H8 H -0.0963 0.5962 0.1293
C10 C 0.03063(15) 0.63851(16) 0.09570(6)
C11 C -0.20369(13) 0.53268(15) 0.09344(7)
H9 H -0.2468 0.4865 0.0924
H10 H -0.2106 0.5598 0.1068
C12 C -0.04353(17) 0.69529(16) 0.09173(8)
H11 H 0.0024 0.7383 0.0897
H12 H -0.0673 0.7020 0.1063
C13 C -0.23088(12) 0.53615(14) 0.04799(6)
C14 C -0.16496(15) 0.64446(14) 0.06969(7)
H13 H -0.1849 0.6612 0.0831
C15 C -0.18073(15) 0.65914(13) 0.04179(7)
H14 H -0.2122 0.6795 0.0417
C16 C -0.06076(14) 0.72265(14) 0.04661(7)
C17 C -0.26244(15) 0.56735(17) 0.00722(7)
H15 H -0.2971 0.5168 0.0076
H16 H -0.2881 0.5934 0.0075
C18 C -0.10690(17) 0.74602(15) 0.00826(7)
H17 H -0.0595 0.7877 0.0083
H18 H -0.1412 0.7624 0.0087
C19 C -0.23461(12) 0.53522(14) -0.03391(6)
C20 C -0.18477(14) 0.65908(14) -0.02697(6)
H19 H -0.2161 0.6797 -0.0266
C21 C -0.17008(13) 0.64454(13) -0.05385(6)
H20 H -0.1887 0.6648 -0.0664
C22 C -0.06482(15) 0.71872(15) -0.03355(7)
C23 C 0.21311(14) 0.46560(16) 0.08091(8)
H21 H 0.2205 0.4381 0.0940
H22 H 0.2558 0.5122 0.0803
C24 C 0.05031(16) 0.30260(15) 0.07796(8)
H23 H 0.0728 0.2886 0.0910
H24 H 0.0029 0.2624 0.0751
N1 N 0.04314(12) 0.36333(12) 0.08810(5)
N2 N -0.01471(11) 0.41103(12) 0.10540(5)
N3 N 0.15384(12) 0.47480(12) 0.08878(6)
N4 N 0.09753(12) 0.52472(13) 0.10466(6)
N5 N -0.08286(11) 0.47059(12) 0.11034(5)
N6 N -0.14399(11) 0.52234(12) 0.10059(5)
N7 N 0.02771(12) 0.58412(12) 0.10744(6)
N8 N -0.03247(11) 0.63478(11) 0.09678(5)
N9 N -0.19339(11) 0.56873(10) 0.06968(5)
N10 N -0.21616(12) 0.58630(11) 0.02967(5)
N11 N -0.08667(12) 0.68436(12) 0.06841(7)
N12 N -0.11524(12) 0.70529(12) 0.03063(6)
N13 N -0.22053(12) 0.58424(12) -0.01589(5)
N14 N -0.20542(11) 0.56930(11) -0.05620(5)
N15 N -0.11701(11) 0.70514(13) -0.01584(5)
N16 N -0.09066(11) 0.68316(13) -0.05453(6)
O2 O -0.07547(10) 0.31363(11) 0.08090(4)
O3 O -0.19142(9) 0.40535(10) 0.09005(4)
O4 O -0.26277(10) 0.47211(9) 0.04433(4)
O5 O -0.26710(11) 0.47207(9) -0.03087(4)
O6 O 0.20005(9) 0.59419(10) 0.08145(5)
O7 O 0.08100(11) 0.68469(10) 0.08314(5)
O8 O 0.00110(10) 0.76780(11) 0.04262(6)
O9 O -0.00237(11) 0.75859(12) -0.02862(6)
C1I C 0.02133(13) 0.64225(14) -0.09005(5)
C2I C -0.09707(12) 0.58350(13) -0.10284(6)
H1I H -0.1155 0.6032 -0.1157
C3I C -0.05777(14) 0.54437(13) -0.11595(6)
H2I H -0.0594 0.5439 -0.1347
C4I C -0.15423(13) 0.46277(15) -0.09060(6)
C5I C 0.07088(15) 0.58980(15) -0.11796(6)
H3I H 0.0622 0.5873 -0.1363
H4I H 0.1139 0.6347 -0.1144
C6I C -0.09202(13) 0.41577(14) -0.11525(8)
H5I H -0.0931 0.4177 -0.1338
H6I H -0.1331 0.3714 -0.1098
C7I C 0.14402(14) 0.53879(14) -0.09940(6)
C8I C 0.04194(14) 0.46021(15) -0.12031(6)
H7I H 0.0356 0.4617 -0.1389
C9I C 0.08344(16) 0.42181(18) -0.11415(7)
H8I H 0.0963 0.4038 -0.1293
C10I C -0.03063(15) 0.36149(16) -0.09570(6)
C11I C 0.20369(13) 0.46732(15) -0.09344(7)
H9I H 0.2468 0.5135 -0.0924
H10I H 0.2106 0.4402 -0.1068
C12I C 0.04353(17) 0.30471(16) -0.09173(8)
H11I H -0.0024 0.2617 -0.0897
H12I H 0.0673 0.2980 -0.1063
C13I C 0.23088(12) 0.46385(14) -0.04799(6)
C14I C 0.16496(15) 0.35554(14) -0.06969(7)
H13I H 0.1849 0.3388 -0.0831
C15I C 0.18073(15) 0.34086(13) -0.04179(7)
H14I H 0.2122 0.3205 -0.0417
C16I C 0.06076(14) 0.27735(14) -0.04661(7)
C17I C 0.26244(15) 0.43265(17) -0.00722(7)
H15I H 0.2971 0.4832 -0.0076
H16I H 0.2881 0.4066 -0.0075
C18I C 0.10690(17) 0.25398(15) -0.00826(7)
H17I H 0.0595 0.2123 -0.0083
H18I H 0.1412 0.2376 -0.0087
C19I C 0.23461(12) 0.46478(14) 0.03391(6)
C20I C 0.18477(14) 0.34092(14) 0.02697(6)
H19I H 0.2161 0.3203 0.0266
C21I C 0.17008(13) 0.35546(13) 0.05385(6)
H20I H 0.1887 0.3352 0.0664
C22I C 0.06482(15) 0.28128(15) 0.03355(7)
C23I C -0.21311(14) 0.53440(16) -0.08091(8)
H21I H -0.2205 0.5619 -0.0940
H22I H -0.2558 0.4878 -0.0803
C24I C -0.05031(16) 0.69740(15) -0.07796(8)
H23I H -0.0728 0.7114 -0.0910
H24I H -0.0029 0.7376 -0.0751
N1I N -0.04314(12) 0.63667(12) -0.08810(5)
N2I N 0.01471(11) 0.58897(12) -0.10540(5)
N3I N -0.15384(12) 0.52520(12) -0.08878(6)
N4I N -0.09753(12) 0.47528(13) -0.10466(6)
N5I N 0.08286(11) 0.52941(12) -0.11034(5)
N6I N 0.14399(11) 0.47766(12) -0.10059(5)
N7I N -0.02771(12) 0.41588(12) -0.10744(6)
N8I N 0.03247(11) 0.36522(11) -0.09678(5)
N9I N 0.19339(11) 0.43127(10) -0.06968(5)
N10I N 0.21616(12) 0.41370(11) -0.02967(5)
N11I N 0.08667(12) 0.31564(12) -0.06841(7)
N12I N 0.11524(12) 0.29471(12) -0.03063(6)
N13I N 0.22053(12) 0.41576(12) 0.01589(5)
N14I N 0.20542(11) 0.43070(11) 0.05620(5)
N15I N 0.11701(11) 0.29486(13) 0.01584(5)
N16I N 0.09066(11) 0.31684(13) 0.05453(6)
O2I O 0.07547(10) 0.68637(11) -0.08090(4)
O3I O 0.19142(9) 0.59465(10) -0.09005(4)
O4I O 0.26277(10) 0.52789(9) -0.04433(4)
O5I O 0.26710(11) 0.52793(9) 0.03087(4)
O6I O -0.20005(9) 0.40581(10) -0.08145(5)
O7I O -0.08100(11) 0.31531(10) -0.08314(5)
O8I O -0.00110(10) 0.23220(11) -0.04262(6)
O9I O 0.00237(11) 0.24141(12) 0.02862(6)
loop_
_geom_bond_atom_site_label_1
_geom_bond_atom_site_label_2
_geom_bond_site_symmetry_1
_geom_bond_site_symmetry_2
C1 N1 1_555 1_555
C2 H1 1_555 1_555
C3 C2 1_555 1_555
H2 C3 1_555 1_555
C4 N3 1_555 1_555
C5 H3 1_555 1_555
H4 C5 1_555 1_555
C6 H5 1_555 1_555
H6 C6 1_555 1_555
C7 N5 1_555 1_555
C8 H7 1_555 1_555
C9 C8 1_555 1_555
H8 C9 1_555 1_555
C10 N7 1_555 1_555
C11 H9 1_555 1_555
H10 C11 1_555 1_555
C12 H11 1_555 1_555
H12 C12 1_555 1_555
C13 N9 1_555 1_555
C14 H13 1_555 1_555
C15 C14 1_555 1_555
H14 C15 1_555 1_555
C16 N11 1_555 1_555
C17 H15 1_555 1_555
H16 C17 1_555 1_555
C18 H17 1_555 1_555
H18 C18 1_555 1_555
C19 N13 1_555 1_555
C20 H19 1_555 1_555
C21 C20 1_555 1_555
H20 C21 1_555 1_555
C22 N15 1_555 1_555
C23 H21 1_555 1_555
H22 C23 1_555 1_555
C24 H23 1_555 1_555
H24 C24 1_555 1_555
N1 C2 1_555 1_555
N2 C1 1_555 1_555
N3 C2 1_555 1_555
N4 C3 1_555 1_555
N5 C5 1_555 1_555
N6 C7 1_555 1_555
N7 C6 1_555 1_555
N8 C9 1_555 1_555
N9 C11 1_555 1_555
N10 C13 1_555 1_555
N11 C12 1_555 1_555
N12 C15 1_555 1_555
N13 C17 1_555 1_555
N14 C19 1_555 1_555
N15 C18 1_555 1_555
N16 C21 1_555 1_555
O2 C1 1_555 1_555
O3 C7 1_555 1_555
O4 C13 1_555 1_555
O5 C19 1_555 1_555
O6 C4 1_555 1_555
O7 C10 1_555 1_555
O8 C16 1_555 1_555
O9 C22 1_555 1_555
C1I N1I 1_555 1_555
C2I H1I 1_555 1_555
C3I C2I 1_555 1_555
H2I C3I 1_555 1_555
C4I N3I 1_555 1_555
C5I H3I 1_555 1_555
H4I C5I 1_555 1_555
C6I H5I 1_555 1_555
H6I C6I 1_555 1_555
C7I N5I 1_555 1_555
C8I H7I 1_555 1_555
C9I C8I 1_555 1_555
H8I C9I 1_555 1_555
C10I N7I 1_555 1_555
C11I H9I 1_555 1_555
H10I C11I 1_555 1_555
C12I H11I 1_555 1_555
H12I C12I 1_555 1_555
C13I N9I 1_555 1_555
C14I H13I 1_555 1_555
C15I C14I 1_555 1_555
H14I C15I 1_555 1_555
C16I N11I 1_555 1_555
C17I H15I 1_555 1_555
H16I C17I 1_555 1_555
C18I H17I 1_555 1_555
H18I C18I 1_555 1_555
C19I N13I 1_555 1_555
C20I H19I 1_555 1_555
C21I C20I 1_555 1_555
H20I C21I 1_555 1_555
C22I N15I 1_555 1_555
C23I N14 1_555 1_555
H21I C23I 1_555 1_555
H22I C23I 1_555 1_555
C24I N16 1_555 1_555
H23I C24I 1_555 1_555
H24I C24I 1_555 1_555
N1I C2I 1_555 1_555
N2I C1I 1_555 1_555
N3I C2I 1_555 1_555
N4I C3I 1_555 1_555
N5I C5I 1_555 1_555
N6I C7I 1_555 1_555
N7I C6I 1_555 1_555
N8I C9I 1_555 1_555
N9I C11I 1_555 1_555
N10I C13I 1_555 1_555
N11I C12I 1_555 1_555
N12I C15I 1_555 1_555
N13I C17I 1_555 1_555
N14I C23 1_555 1_555
N15I C18I 1_555 1_555
N16I C24 1_555 1_555
O2I C1I 1_555 1_555
O3I C7I 1_555 1_555
O4I C13I 1_555 1_555
O5I C19I 1_555 1_555
O6I C4I 1_555 1_555
O7I C10I 1_555 1_555
O8I C16I 1_555 1_555
O9I C22I 1_555 1_555
C3 N2 1_555 1_555
C4 N4 1_555 1_555
C5 N2 1_555 1_555
C6 N4 1_555 1_555
C8 N5 1_555 1_555
C8 N7 1_555 1_555
C9 N6 1_555 1_555
C10 N8 1_555 1_555
C11 N6 1_555 1_555
C12 N8 1_555 1_555
C14 N9 1_555 1_555
C14 N11 1_555 1_555
C15 N10 1_555 1_555
C16 N12 1_555 1_555
C17 N10 1_555 1_555
C18 N12 1_555 1_555
C20 N13 1_555 1_555
C20 N15 1_555 1_555
C21 N14 1_555 1_555
C22 N16 1_555 1_555
C23 N3 1_555 1_555
C24 N1 1_555 1_555
C3I N2I 1_555 1_555
C4I N4I 1_555 1_555
C5I N2I 1_555 1_555
C6I N4I 1_555 1_555
C8I N5I 1_555 1_555
C8I N7I 1_555 1_555
C9I N6I 1_555 1_555
C10I N8I 1_555 1_555
C11I N6I 1_555 1_555
C12I N8I 1_555 1_555
C14I N9I 1_555 1_555
C14I N11I 1_555 1_555
C15I N10I 1_555 1_555
C16I N12I 1_555 1_555
C17I N10I 1_555 1_555
C18I N12I 1_555 1_555
C19I N14I 1_555 1_555
C20I N13I 1_555 1_555
C20I N15I 1_555 1_555
C21I N14I 1_555 1_555
C21I N16I 1_555 1_555
C22I N16I 1_555 1_555
C23I N3I 1_555 1_555
C24I N1I 1_555 1_555

#END
