
#######################################################################
#
#                 Cambridge Crystallographic Data Centre
#                                CCDC 
#
#######################################################################
#
# If this CIF has been generated from an entry in the Cambridge 
# Structural Database, then it will include bibliographic, chemical, 
# crystal, experimental, refinement or atomic coordinate data resulting 
# from the CCDC's data processing and validation procedures.
#
#######################################################################

data_ZIKTOF
_chemical_name_common            
1-(4-methylbenzoyl)-3-(3-trifluoromethyl-4-chlorophenyl)thiourea
_chemical_formula_moiety         'C15 H9 Br1 Cl1 F3 N2 O1 S1'
_chemical_name_systematic        
4-bromo-N-{[4-chloro-3-(trifluoromethyl)phenyl]carbamothioyl}benzamide
_symmetry_cell_setting           triclinic
_symmetry_space_group_name_H-M   'P -1'
_symmetry_Int_Tables_number      2
_space_group_name_Hall           '-P 1'
loop_
_symmetry_equiv_pos_site_id
_symmetry_equiv_pos_as_xyz
1 x,y,z
2 -x,-y,-z
_cell_length_a                   8.5162(19)
_cell_length_b                   10.002(2)
_cell_length_c                   10.469(2)
_cell_angle_alpha                87.062(3)
_cell_angle_beta                 85.202(4)
_cell_angle_gamma                69.997(4)
_cell_volume                     834.764
_exptl_crystal_colour            colorless
_cell_formula_units_Z            2
_exptl_crystal_recrystallization_method 'Re-crystallisation from solvent'
loop_
_atom_site_label
_atom_site_type_symbol
_atom_site_fract_x
_atom_site_fract_y
_atom_site_fract_z
Br1 Br 0.31160(7) -0.15896(6) 0.90215(5)
Cl1 Cl 0.94268(15) 0.75356(13) -0.00528(11)
S1 S 1.03997(12) 0.16412(11) 0.38879(12)
F1 F 1.2406(4) 0.5407(4) 0.3192(3)
F2 F 1.2668(3) 0.5660(4) 0.1158(3)
F3 F 1.1371(4) 0.7444(3) 0.2304(3)
N1 N 0.7502(4) 0.1843(3) 0.5118(3)
H1 H 0.8083 0.1042 0.5453
N2 N 0.7505(4) 0.3787(3) 0.3838(3)
H2 H 0.6478 0.4128 0.4136
O1 O 0.4854(3) 0.3430(3) 0.5052(3)
C1 C 0.6130(5) 0.0582(4) 0.7353(4)
H3 H 0.7174 0.0637 0.7476
C2 C 0.5496(5) -0.0283(4) 0.8150(4)
H4 H 0.6108 -0.0810 0.8812
C3 C 0.3951(5) -0.0360(4) 0.7958(4)
C4 C 0.3007(5) 0.0439(4) 0.6993(4)
H5 H 0.1959 0.0388 0.6875
C5 C 0.3633(5) 0.1303(4) 0.6217(4)
H6 H 0.2995 0.1855 0.5578
C6 C 0.5210(4) 0.1369(4) 0.6369(3)
C7 C 0.5815(5) 0.2311(4) 0.5471(4)
C8 C 0.8390(4) 0.2504(4) 0.4283(3)
C9 C 0.8058(5) 0.4654(4) 0.2934(3)
C10 C 0.6978(5) 0.5339(4) 0.2000(4)
H7 H 0.5958 0.5194 0.1980
C11 C 0.7404(5) 0.6226(4) 0.1109(4)
H8 H 0.6675 0.6683 0.0485
C12 C 0.8913(5) 0.6444(4) 0.1135(3)
C13 C 0.9981(5) 0.5800(4) 0.2090(3)
C14 C 0.9540(5) 0.4910(4) 0.2993(3)
H9 H 1.0245 0.4483 0.3640
C15 C 1.1612(6) 0.6059(5) 0.2174(4)
loop_
_geom_bond_atom_site_label_1
_geom_bond_atom_site_label_2
_geom_bond_site_symmetry_1
_geom_bond_site_symmetry_2
Br1 C3 1_555 1_555
Cl1 C12 1_555 1_555
S1 C8 1_555 1_555
F1 C15 1_555 1_555
F2 C15 1_555 1_555
F3 C15 1_555 1_555
N1 H1 1_555 1_555
N2 H2 1_555 1_555
O1 C7 1_555 1_555
C1 H3 1_555 1_555
C2 C1 1_555 1_555
H4 C2 1_555 1_555
C3 C2 1_555 1_555
C4 C3 1_555 1_555
H5 C4 1_555 1_555
C5 C4 1_555 1_555
H6 C5 1_555 1_555
C6 C1 1_555 1_555
C7 N1 1_555 1_555
C8 N1 1_555 1_555
C9 N2 1_555 1_555
C10 C9 1_555 1_555
H7 C10 1_555 1_555
C11 C10 1_555 1_555
H8 C11 1_555 1_555
C12 C11 1_555 1_555
C13 C12 1_555 1_555
C14 C9 1_555 1_555
H9 C14 1_555 1_555
C15 C13 1_555 1_555
N2 C8 1_555 1_555
C5 C6 1_555 1_555
C6 C7 1_555 1_555
C13 C14 1_555 1_555

#END
