
#######################################################################
#
#                 Cambridge Crystallographic Data Centre
#                                CCDC 
#
#######################################################################
#
# If this CIF has been generated from an entry in the Cambridge 
# Structural Database, then it will include bibliographic, chemical, 
# crystal, experimental, refinement or atomic coordinate data resulting 
# from the CCDC's data processing and validation procedures.
#
#######################################################################

data_ZILWUP
_chemical_formula_moiety         'C21 H23 Cl1 F1 N3 O3'
_chemical_name_systematic        
'ethyl 4-{3-[(4-chlorophenyl)amino]-7-fluoro-2-methyl-4-oxo-1,2,3,4-tetrahydroquinazolin-2-yl}butanoate'
_symmetry_cell_setting           monoclinic
_symmetry_space_group_name_H-M   'C 2/c'
_symmetry_Int_Tables_number      15
_space_group_name_Hall           '-C 2yn'
loop_
_symmetry_equiv_pos_site_id
_symmetry_equiv_pos_as_xyz
1 x,y,z
2 -x,y,1/2-z
3 1/2+x,1/2+y,z
4 1/2-x,1/2+y,1/2-z
5 -x,-y,-z
6 x,-y,1/2+z
7 1/2-x,1/2-y,-z
8 1/2+x,1/2-y,1/2+z
_cell_length_a                   22.4604(9)
_cell_length_b                   12.6310(5)
_cell_length_c                   16.4619(7)
_cell_angle_alpha                90
_cell_angle_beta                 112.266(2)
_cell_angle_gamma                90
_cell_volume                     4321.96
_exptl_crystal_colour            colorless
_cell_formula_units_Z            8
loop_
_atom_site_label
_atom_site_type_symbol
_atom_site_fract_x
_atom_site_fract_y
_atom_site_fract_z
Cl1 Cl 0.33364(4) -0.11986(4) 0.15316(5)
N1 N 0.40871(6) 0.32741(11) 0.15270(9)
N2 N 0.38284(6) 0.40657(10) 0.18970(9)
N3 N 0.30759(7) 0.54319(12) 0.17001(10)
C1 C 0.33987(7) 0.58079(13) 0.25322(11)
O1 O 0.46029(6) 0.37509(11) 0.32378(8)
C2 C 0.34186(7) 0.48537(13) 0.12495(10)
C3 C 0.39155(7) 0.22244(13) 0.15935(10)
C4 C 0.41628(7) 0.43154(13) 0.27583(11)
C5 C 0.39522(8) 0.52733(13) 0.30785(11)
F1 F 0.32865(7) 0.77997(10) 0.40316(10)
O2 O 0.40407(6) 0.88364(10) -0.04547(9)
O3 O 0.30574(6) 0.81702(12) -0.08250(11)
C6 C 0.38604(8) 0.55739(13) 0.09701(11)
H1 H 0.4156 0.5933 0.1486
H2 H 0.4114 0.5134 0.0740
C7 C 0.31779(8) 0.66770(14) 0.28643(13)
H3 H 0.2812 0.7046 0.2516
C8 C 0.31967(9) 0.08873(15) 0.17206(13)
H4 H 0.2828 0.0700 0.1815
C9 C 0.29242(8) 0.42870(15) 0.04754(12)
H5 H 0.2658 0.3852 0.0677
H6 H 0.3140 0.3851 0.0194
H7 H 0.2662 0.4799 0.0064
C10 C 0.42814(9) 0.56264(17) 0.39327(12)
H8 H 0.4654 0.5277 0.4288
C11 C 0.36295(8) 0.80956(14) -0.04414(12)
C12 C 0.33697(8) 0.19412(14) 0.17386(12)
H9 H 0.3117 0.2462 0.1849
C13 C 0.35095(9) 0.64017(14) 0.02836(13)
H10 H 0.3255 0.6048 -0.0261
H11 H 0.3217 0.6793 0.0480
C14 C 0.35150(10) 0.69675(15) 0.37141(14)
C15 C 0.41181(10) 0.03884(15) 0.14292(14)
H12 H 0.4371 -0.0138 0.1329
C16 C 0.35689(9) 0.01234(14) 0.15634(12)
C17 C 0.39636(9) 0.71664(15) 0.01135(14)
H13 H 0.4268 0.7424 0.0671
H14 H 0.4205 0.6793 -0.0177
C18 C 0.42918(9) 0.14334(14) 0.14437(13)
H15 H 0.4663 0.1612 0.1353
C19 C 0.40678(11) 0.64817(18) 0.42634(14)
H16 H 0.4288 0.6720 0.4834
C20 C 0.37746(10) 0.97908(16) -0.09540(15)
H17 H 0.3581 1.0231 -0.0638
H18 H 0.3445 0.9607 -0.1517
C21 C 0.43035(12) 1.0370(2) -0.10843(19)
H19 H 0.4138 1.1004 -0.1413
H20 H 0.4490 0.9930 -0.1401
H21 H 0.4626 1.0551 -0.0524
H22 H 0.2753(6) 0.5798(13) 0.1375(10)
H23 H 0.4486(5) 0.3368(14) 0.1660(11)
loop_
_geom_bond_atom_site_label_1
_geom_bond_atom_site_label_2
_geom_bond_site_symmetry_1
_geom_bond_site_symmetry_2
Cl1 C16 1_555 1_555
N1 N2 1_555 1_555
N2 C2 1_555 1_555
N3 C1 1_555 1_555
C1 C5 1_555 1_555
O1 C4 1_555 1_555
C2 N3 1_555 1_555
C3 N1 1_555 1_555
C4 N2 1_555 1_555
C5 C4 1_555 1_555
F1 C14 1_555 1_555
O2 C11 1_555 1_555
O3 C11 1_555 1_555
C6 C2 1_555 1_555
H1 C6 1_555 1_555
H2 C6 1_555 1_555
C7 C1 1_555 1_555
H3 C7 1_555 1_555
C8 H4 1_555 1_555
C9 C2 1_555 1_555
H5 C9 1_555 1_555
H6 C9 1_555 1_555
H7 C9 1_555 1_555
C10 C5 1_555 1_555
H8 C10 1_555 1_555
C11 C17 1_555 1_555
C12 C3 1_555 1_555
H9 C12 1_555 1_555
C13 C6 1_555 1_555
H10 C13 1_555 1_555
H11 C13 1_555 1_555
C14 C7 1_555 1_555
C15 H12 1_555 1_555
C16 C8 1_555 1_555
C17 C13 1_555 1_555
H13 C17 1_555 1_555
H14 C17 1_555 1_555
C18 C3 1_555 1_555
H15 C18 1_555 1_555
C19 C10 1_555 1_555
H16 C19 1_555 1_555
C20 O2 1_555 1_555
H17 C20 1_555 1_555
H18 C20 1_555 1_555
C21 C20 1_555 1_555
H19 C21 1_555 1_555
H20 C21 1_555 1_555
H21 C21 1_555 1_555
H22 N3 1_555 1_555
H23 N1 1_555 1_555
C8 C12 1_555 1_555
C14 C19 1_555 1_555
C15 C16 1_555 1_555
C15 C18 1_555 1_555

#END
