
#######################################################################
#
#                 Cambridge Crystallographic Data Centre
#                                CCDC 
#
#######################################################################
#
# If this CIF has been generated from an entry in the Cambridge 
# Structural Database, then it will include bibliographic, chemical, 
# crystal, experimental, refinement or atomic coordinate data resulting 
# from the CCDC's data processing and validation procedures.
#
#######################################################################

data_ZIMCEF
_chemical_name_common            'Salicylamide nitrate'
_chemical_formula_moiety         'C7 H8 N1 O2 1+,N1 O3 1-'
_chemical_name_systematic        'Hydroxy(2-hydroxyphenyl)methaniminium nitrate'
_symmetry_cell_setting           monoclinic
_symmetry_space_group_name_H-M   'P 21/c'
_symmetry_Int_Tables_number      14
_space_group_name_Hall           '-P 2ybc'
loop_
_symmetry_equiv_pos_site_id
_symmetry_equiv_pos_as_xyz
1 x,y,z
2 -x,1/2+y,1/2-z
3 -x,-y,-z
4 x,1/2-y,1/2+z
_cell_length_a                   10.2073(7)
_cell_length_b                   5.0535(3)
_cell_length_c                   16.9090(11)
_cell_angle_alpha                90
_cell_angle_beta                 104.7910(10)
_cell_angle_gamma                90
_cell_volume                     843.308
_cell_formula_units_Z            4
loop_
_atom_site_label
_atom_site_type_symbol
_atom_site_fract_x
_atom_site_fract_y
_atom_site_fract_z
O1 O 0.07178(9) 0.08918(17) 0.41741(5)
N1 N 0.11443(10) 0.07010(19) 0.35467(6)
O2 O 0.07077(10) 0.22101(19) 0.29639(5)
O3 O 0.20224(9) -0.10127(19) 0.35089(5)
O4 O 0.29838(9) -0.46304(18) 0.46117(5)
N2 N 0.14151(10) -0.3340(2) 0.52606(6)
O5 O 0.12741(9) -0.60891(18) 0.65397(5)
C1 C 0.29240(11) -0.6977(2) 0.58081(7)
C2 C 0.23991(11) -0.4883(2) 0.52124(7)
C3 C 0.23355(11) -0.7554(2) 0.64554(7)
C4 C 0.39402(13) -1.1070(3) 0.68888(8)
C5 C 0.28446(13) -0.9637(3) 0.69840(7)
C6 C 0.40455(12) -0.8454(3) 0.57284(8)
C7 C 0.45566(13) -1.0477(3) 0.62653(8)
H1 H 0.2418(15) -1.005(3) 0.7400(9)
H2 H 0.4448(14) -0.804(3) 0.5302(8)
H3 H 0.1032(15) -0.351(3) 0.5668(9)
H4 H 0.1136(15) -0.202(3) 0.4887(10)
H5 H 0.5330(16) -1.144(3) 0.6215(9)
H6 H 0.4283(14) -1.251(3) 0.7255(9)
H7 H 0.1112(18) -0.636(4) 0.7022(11)
H8 H 0.261(2) -0.326(4) 0.4251(12)
loop_
_geom_bond_atom_site_label_1
_geom_bond_atom_site_label_2
_geom_bond_site_symmetry_1
_geom_bond_site_symmetry_2
O1 N1 1_555 1_555
N1 O2 1_555 1_555
O3 N1 1_555 1_555
O4 C2 1_555 1_555
N2 C2 1_555 1_555
O5 C3 1_555 1_555
C1 C2 1_555 1_555
C3 C1 1_555 1_555
C4 C5 1_555 1_555
C5 C3 1_555 1_555
C6 C1 1_555 1_555
C7 C4 1_555 1_555
H1 C5 1_555 1_555
H2 C6 1_555 1_555
H3 N2 1_555 1_555
H4 N2 1_555 1_555
H5 C7 1_555 1_555
H6 C4 1_555 1_555
H7 O5 1_555 1_555
H8 O4 1_555 1_555
C6 C7 1_555 1_555

#END
