
#######################################################################
#
#                 Cambridge Crystallographic Data Centre
#                                CCDC 
#
#######################################################################
#
# If this CIF has been generated from an entry in the Cambridge 
# Structural Database, then it will include bibliographic, chemical, 
# crystal, experimental, refinement or atomic coordinate data resulting 
# from the CCDC's data processing and validation procedures.
#
#######################################################################

data_ZIMCEG
_chemical_formula_moiety         'C21 H23 N1 O4,0.5(C6 H14)'
_chemical_name_systematic        
'diethyl 4-(1-methylpyridin-2(1H)-ylidene)-3-phenylpent-2-enedioate hexane solvate'
_symmetry_cell_setting           triclinic
_symmetry_space_group_name_H-M   'P -1'
_symmetry_Int_Tables_number      2
_space_group_name_Hall           '-P 1'
loop_
_symmetry_equiv_pos_site_id
_symmetry_equiv_pos_as_xyz
1 x,y,z
2 -x,-y,-z
_cell_length_a                   8.7892(18)
_cell_length_b                   9.969(2)
_cell_length_c                   13.277(3)
_cell_angle_alpha                86.63(3)
_cell_angle_beta                 73.04(3)
_cell_angle_gamma                82.14(3)
_cell_volume                     1102.06
_exptl_crystal_colour            orange
_exptl_crystal_description       block
_cell_formula_units_Z            2
loop_
_atom_site_label
_atom_site_type_symbol
_atom_site_fract_x
_atom_site_fract_y
_atom_site_fract_z
N1 N 0.0281(3) 0.7693(2) 0.45331(19)
O1 O 0.1547(2) 0.6523(2) 0.23692(16)
O2 O 0.3995(2) 0.7182(2) 0.17172(15)
O3 O 0.2787(2) 0.8901(2) 0.52129(17)
O4 O 0.4801(2) 0.84605(19) 0.59568(15)
C1 C 0.0228(4) 0.8808(3) 0.3764(3)
H1 H 0.1248 0.8776 0.3238
H2 H -0.0589 0.8719 0.3434
H3 H -0.0009 0.9658 0.4117
C2 C -0.1079(3) 0.7585(4) 0.5342(3)
H4 H -0.2014 0.8150 0.5343
C3 C -0.1096(4) 0.6680(4) 0.6137(3)
H5 H -0.2033 0.6610 0.6678
C4 C 0.0316(4) 0.5849(3) 0.6134(2)
H6 H 0.0337 0.5227 0.6682
C5 C 0.1666(4) 0.5956(3) 0.5320(2)
H7 H 0.2612 0.5417 0.5331
C6 C 0.1669(3) 0.6853(3) 0.4469(2)
C7 C 0.3040(3) 0.6870(3) 0.3543(2)
C8 C 0.4633(3) 0.6753(3) 0.3664(2)
C9 C 0.5022(3) 0.7240(3) 0.4480(2)
H8 H 0.6012 0.6891 0.4569
C10 C 0.4059(3) 0.8243(3) 0.5223(2)
C11 C 0.3960(3) 0.9478(3) 0.6722(2)
H9 H 0.2960 0.9189 0.7156
H10 H 0.3717 1.0325 0.6369
C12 C 0.5017(4) 0.9664(4) 0.7388(3)
H11 H 0.4484 1.0337 0.7905
H12 H 0.5246 0.8821 0.7736
H13 H 0.6000 0.9952 0.6952
C13 C 0.2757(3) 0.6828(3) 0.2533(2)
C14 C 0.3970(4) 0.6850(4) 0.0682(2)
H14 H 0.3066 0.7374 0.0505
H15 H 0.3878 0.5896 0.0653
C15 C 0.5515(5) 0.7184(5) -0.0072(3)
H16 H 0.5544 0.6976 -0.0775
H17 H 0.5590 0.8131 -0.0036
H18 H 0.6399 0.6660 0.0112
C16 C 0.5973(3) 0.5985(3) 0.2849(2)
C17 C 0.5827(3) 0.4699(3) 0.2560(2)
H19 H 0.4895 0.4310 0.2876
C18 C 0.7058(4) 0.3999(3) 0.1805(3)
H20 H 0.6952 0.3138 0.1620
C19 C 0.8445(4) 0.4564(3) 0.1321(2)
H21 H 0.9259 0.4095 0.0802
C20 C 0.8619(3) 0.5827(4) 0.1610(2)
H22 H 0.9556 0.6208 0.1291
C21 C 0.7394(3) 0.6531(3) 0.2379(2)
H23 H 0.7525 0.7375 0.2581
C22 C 0.9880(12) 0.0569(11) 0.0398(7)
H24 H 0.9985 0.1431 0.0021
H25 H 0.8807 0.0617 0.0880
C23 C 1.0999(12) 0.0341(9) 0.0969(6)
H26 H 1.2058 0.0276 0.0467
H27 H 1.0890 -0.0538 0.1318
C24 C 1.0955(6) 0.1316(5) 0.1767(4)
H28 H 1.1792 0.1022 0.2090
H29 H 1.1109 0.2190 0.1439
H30 H 0.9935 0.1372 0.2294
C22A C 1.0120(12) -0.0569(11) -0.0398(7)
H24A H 1.0015 -0.1431 -0.0021
H25A H 1.1193 -0.0617 -0.0880
C23A C 0.9001(12) -0.0341(9) -0.0969(6)
H26A H 0.7942 -0.0276 -0.0467
H27A H 0.9110 0.0538 -0.1318
C24A C 0.9045(6) -0.1316(5) -0.1767(4)
H28A H 0.8208 -0.1022 -0.2090
H29A H 0.8891 -0.2190 -0.1439
H30A H 1.0065 -0.1372 -0.2294
loop_
_geom_bond_atom_site_label_1
_geom_bond_atom_site_label_2
_geom_bond_site_symmetry_1
_geom_bond_site_symmetry_2
N1 C1 1_555 1_555
O1 C13 1_555 1_555
O2 C13 1_555 1_555
O3 C10 1_555 1_555
O4 C10 1_555 1_555
C1 H1 1_555 1_555
H2 C1 1_555 1_555
H3 C1 1_555 1_555
C2 N1 1_555 1_555
H4 C2 1_555 1_555
C3 C2 1_555 1_555
H5 C3 1_555 1_555
C4 C3 1_555 1_555
H6 C4 1_555 1_555
C5 C4 1_555 1_555
H7 C5 1_555 1_555
C6 N1 1_555 1_555
C7 C6 1_555 1_555
C8 C7 1_555 1_555
C9 C8 1_555 1_555
H8 C9 1_555 1_555
C10 C9 1_555 1_555
C11 O4 1_555 1_555
H9 C11 1_555 1_555
H10 C11 1_555 1_555
C12 C11 1_555 1_555
H11 C12 1_555 1_555
H12 C12 1_555 1_555
H13 C12 1_555 1_555
C13 C7 1_555 1_555
C14 O2 1_555 1_555
H14 C14 1_555 1_555
H15 C14 1_555 1_555
C15 C14 1_555 1_555
H16 C15 1_555 1_555
H17 C15 1_555 1_555
H18 C15 1_555 1_555
C16 C8 1_555 1_555
C17 C16 1_555 1_555
H19 C17 1_555 1_555
C18 C17 1_555 1_555
H20 C18 1_555 1_555
C19 C18 1_555 1_555
H21 C19 1_555 1_555
C20 C19 1_555 1_555
H22 C20 1_555 1_555
C21 C16 1_555 1_555
H23 C21 1_555 1_555
C22 H24 1_555 1_555
H25 C22 1_555 1_555
C23 C22 1_555 1_555
H26 C23 1_555 1_555
H27 C23 1_555 1_555
C24 C23 1_555 1_555
H28 C24 1_555 1_555
H29 C24 1_555 1_555
H30 C24 1_555 1_555
C22A C22 1_555 1_555
H24A C22A 1_555 1_555
H25A C22A 1_555 1_555
C23A C22A 1_555 1_555
H26A C23A 1_555 1_555
H27A C23A 1_555 1_555
C24A C23A 1_555 1_555
H28A C24A 1_555 1_555
H29A C24A 1_555 1_555
H30A C24A 1_555 1_555
C5 C6 1_555 1_555
C20 C21 1_555 1_555

#END
