
#######################################################################
#
#                 Cambridge Crystallographic Data Centre
#                                CCDC 
#
#######################################################################
#
# If this CIF has been generated from an entry in the Cambridge 
# Structural Database, then it will include bibliographic, chemical, 
# crystal, experimental, refinement or atomic coordinate data resulting 
# from the CCDC's data processing and validation procedures.
#
#######################################################################

data_ZIMMAM
_chemical_formula_moiety         'C22 H16 N2 O3'
_chemical_name_systematic        
7-hydroxy-7-(2-methoxyphenyl)indazolo[2,3-b]isoquinolin-12(7H)-one
_symmetry_cell_setting           triclinic
_symmetry_space_group_name_H-M   'P -1'
_symmetry_Int_Tables_number      2
_space_group_name_Hall           '-P 1'
loop_
_symmetry_equiv_pos_site_id
_symmetry_equiv_pos_as_xyz
1 x,y,z
2 -x,-y,-z
_cell_length_a                   9.7816(9)
_cell_length_b                   9.7843(10)
_cell_length_c                   9.9643(7)
_cell_angle_alpha                85.321(7)
_cell_angle_beta                 76.276(7)
_cell_angle_gamma                68.418(9)
_cell_volume                     861.451
_exptl_crystal_colour            'light white'
_exptl_crystal_description       block
_cell_formula_units_Z            2
loop_
_atom_site_label
_atom_site_type_symbol
_atom_site_fract_x
_atom_site_fract_y
_atom_site_fract_z
O1 O 0.2725(2) 1.07970(17) 0.79591(17)
O2 O 0.63236(16) 0.63165(14) 0.47678(12)
H1 H 0.6080 0.5610 0.4708
O3 O 0.52219(17) 0.71381(15) 0.90104(13)
N1 N 0.36773(19) 0.60932(18) 0.66073(17)
N2 N 0.42422(18) 0.71552(17) 0.66228(16)
C1 C 0.3649(3) 0.9676(2) 0.7348(2)
C2 C 0.5224(3) 0.9508(2) 0.6700(2)
C3 C 0.5665(3) 1.0724(2) 0.6626(2)
H2 H 0.4966 1.1626 0.6985
C4 C 0.7123(3) 1.0595(3) 0.6028(2)
H3 H 0.7409 1.1409 0.5981
C5 C 0.8163(3) 0.9262(3) 0.5498(2)
H4 H 0.9156 0.9173 0.5108
C6 C 0.7739(3) 0.8050(2) 0.5543(2)
H5 H 0.8444 0.7157 0.5170
C7 C 0.6269(2) 0.8164(2) 0.61399(19)
C8 C 0.5889(2) 0.6788(2) 0.61461(19)
C9 C 0.6697(2) 0.5617(2) 0.7099(2)
C10 C 0.7876(2) 0.4357(2) 0.6547(2)
H6 H 0.8134 0.4191 0.5598
C11 C 0.8678(3) 0.3337(2) 0.7400(2)
H7 H 0.9469 0.2493 0.7020
C12 C 0.8301(3) 0.3575(3) 0.8806(2)
H8 H 0.8838 0.2889 0.9374
C13 C 0.7138(3) 0.4819(2) 0.9375(2)
H9 H 0.6878 0.4968 1.0326
C14 C 0.6350(2) 0.5853(2) 0.8529(2)
C15 C 0.5024(3) 0.7578(3) 1.0398(2)
H10 H 0.5959 0.7591 1.0532
H11 H 0.4716 0.6895 1.1028
H12 H 0.4265 0.8542 1.0566
C16 C 0.2183(2) 0.6740(2) 0.7233(2)
C17 C 0.1077(2) 0.6098(3) 0.7521(2)
H13 H 0.1297 0.5137 0.7258
C18 C -0.0335(3) 0.6947(3) 0.8205(2)
H14 H -0.1088 0.6546 0.8424
C19 C -0.0685(3) 0.8412(3) 0.8589(2)
H15 H -0.1665 0.8953 0.9045
C20 C 0.0362(3) 0.9060(3) 0.8315(2)
H16 H 0.0113 1.0029 0.8573
C21 C 0.1845(2) 0.8210(2) 0.7621(2)
C22 C 0.3210(2) 0.8434(2) 0.72114(19)
loop_
_geom_bond_atom_site_label_1
_geom_bond_atom_site_label_2
_geom_bond_site_symmetry_1
_geom_bond_site_symmetry_2
O1 C1 1_555 1_555
O2 H1 1_555 1_555
O3 C14 1_555 1_555
N1 N2 1_555 1_555
N2 C8 1_555 1_555
C1 C2 1_555 1_555
C2 C3 1_555 1_555
C3 H2 1_555 1_555
C4 C3 1_555 1_555
H3 C4 1_555 1_555
C5 C4 1_555 1_555
H4 C5 1_555 1_555
C6 C5 1_555 1_555
H5 C6 1_555 1_555
C7 C2 1_555 1_555
C8 O2 1_555 1_555
C9 C8 1_555 1_555
C10 C9 1_555 1_555
H6 C10 1_555 1_555
C11 C10 1_555 1_555
H7 C11 1_555 1_555
C12 C11 1_555 1_555
H8 C12 1_555 1_555
C13 C12 1_555 1_555
H9 C13 1_555 1_555
C14 C9 1_555 1_555
C15 O3 1_555 1_555
H10 C15 1_555 1_555
H11 C15 1_555 1_555
H12 C15 1_555 1_555
C16 N1 1_555 1_555
C17 C16 1_555 1_555
H13 C17 1_555 1_555
C18 C17 1_555 1_555
H14 C18 1_555 1_555
C19 C18 1_555 1_555
H15 C19 1_555 1_555
C20 C19 1_555 1_555
H16 C20 1_555 1_555
C21 C16 1_555 1_555
C22 N2 1_555 1_555
C1 C22 1_555 1_555
C6 C7 1_555 1_555
C7 C8 1_555 1_555
C13 C14 1_555 1_555
C20 C21 1_555 1_555
C21 C22 1_555 1_555

#END
