
#######################################################################
#
#                 Cambridge Crystallographic Data Centre
#                                CCDC 
#
#######################################################################
#
# If this CIF has been generated from an entry in the Cambridge 
# Structural Database, then it will include bibliographic, chemical, 
# crystal, experimental, refinement or atomic coordinate data resulting 
# from the CCDC's data processing and validation procedures.
#
#######################################################################

data_ZIMREV
_chemical_formula_moiety         'C22 H15 N1 O2'
_chemical_name_systematic        1-benzoyl-2-phenyl-4H-quinolizin-4-one
_symmetry_cell_setting           monoclinic
_symmetry_space_group_name_H-M   'C 2/c'
_symmetry_Int_Tables_number      15
_space_group_name_Hall           '-C 2yn'
loop_
_symmetry_equiv_pos_site_id
_symmetry_equiv_pos_as_xyz
1 x,y,z
2 -x,y,1/2-z
3 1/2+x,1/2+y,z
4 1/2-x,1/2+y,1/2-z
5 -x,-y,-z
6 x,-y,1/2+z
7 1/2-x,1/2-y,-z
8 1/2+x,1/2-y,1/2+z
_cell_length_a                   14.819(3)
_cell_length_b                   7.9577(16)
_cell_length_c                   28.380(6)
_cell_angle_alpha                90
_cell_angle_beta                 100.30(3)
_cell_angle_gamma                90
_cell_volume                     3292.78
_exptl_crystal_colour            colorless
_exptl_crystal_description       Prism
_cell_formula_units_Z            8
loop_
_atom_site_label
_atom_site_type_symbol
_atom_site_fract_x
_atom_site_fract_y
_atom_site_fract_z
N1 N 0.23310(17) 0.0048(3) 0.50922(7)
C1 C 0.2190(2) 0.0665(4) 0.46256(9)
H1 H 0.2607 0.0405 0.4427
C2 C 0.1458(3) 0.1630(4) 0.44579(11)
H2 H 0.1380 0.2046 0.4147
C3 C 0.0809(2) 0.2020(4) 0.47488(11)
H3 H 0.0303 0.2689 0.4633
C4 C 0.0935(2) 0.1400(3) 0.52001(10)
H4 H 0.0498 0.1630 0.5390
C5 C 0.17127(19) 0.0409(3) 0.53946(9)
C6 C 0.18863(18) -0.0211(3) 0.58654(8)
C7 C 0.27128(17) -0.1087(3) 0.60313(8)
C8 C 0.33116(19) -0.1433(3) 0.57250(9)
H5 H 0.3852 -0.2004 0.5844
C9 C 0.3143(2) -0.0958(3) 0.52370(9)
C10 C 0.11602(18) -0.0038(3) 0.61629(9)
C11 C 0.08069(16) -0.1594(3) 0.63557(8)
C12 C 0.02489(17) -0.1448(3) 0.67018(9)
H6 H 0.0134 -0.0394 0.6820
C13 C -0.01327(19) -0.2862(4) 0.68695(10)
H7 H -0.0510 -0.2757 0.7097
C14 C 0.00449(18) -0.4424(4) 0.67005(10)
H8 H -0.0202 -0.5375 0.6819
C15 C 0.05909(18) -0.4588(3) 0.63542(10)
H9 H 0.0703 -0.5646 0.6238
C16 C 0.09678(17) -0.3178(3) 0.61832(9)
H10 H 0.1333 -0.3290 0.5950
C17 C 0.29722(16) -0.1561(3) 0.65466(8)
C18 C 0.28733(17) -0.0411(3) 0.69035(8)
H11 H 0.2614 0.0635 0.6820
C19 C 0.31595(18) -0.0812(4) 0.73847(9)
H12 H 0.3095 -0.0032 0.7620
C20 C 0.35388(18) -0.2363(4) 0.75118(9)
H13 H 0.3732 -0.2631 0.7833
C21 C 0.36313(18) -0.3521(4) 0.71605(9)
H14 H 0.3880 -0.4573 0.7247
C22 C 0.33559(17) -0.3127(3) 0.66803(9)
H15 H 0.3428 -0.3910 0.6447
O1 O 0.36272(15) -0.1300(3) 0.49375(7)
O2 O 0.08190(14) 0.1323(2) 0.62340(7)
loop_
_geom_bond_atom_site_label_1
_geom_bond_atom_site_label_2
_geom_bond_site_symmetry_1
_geom_bond_site_symmetry_2
N1 C1 1_555 1_555
C1 H1 1_555 1_555
C2 C1 1_555 1_555
H2 C2 1_555 1_555
C3 C2 1_555 1_555
H3 C3 1_555 1_555
C4 C3 1_555 1_555
H4 C4 1_555 1_555
C5 N1 1_555 1_555
C6 C5 1_555 1_555
C7 C6 1_555 1_555
C8 C7 1_555 1_555
H5 C8 1_555 1_555
C9 N1 1_555 1_555
C10 C6 1_555 1_555
C11 C10 1_555 1_555
C12 C11 1_555 1_555
H6 C12 1_555 1_555
C13 C12 1_555 1_555
H7 C13 1_555 1_555
C14 C13 1_555 1_555
H8 C14 1_555 1_555
C15 C14 1_555 1_555
H9 C15 1_555 1_555
C16 C11 1_555 1_555
H10 C16 1_555 1_555
C17 C7 1_555 1_555
C18 C17 1_555 1_555
H11 C18 1_555 1_555
C19 C18 1_555 1_555
H12 C19 1_555 1_555
C20 C19 1_555 1_555
H13 C20 1_555 1_555
C21 C20 1_555 1_555
H14 C21 1_555 1_555
C22 C17 1_555 1_555
H15 C22 1_555 1_555
O1 C9 1_555 1_555
O2 C10 1_555 1_555
C4 C5 1_555 1_555
C8 C9 1_555 1_555
C15 C16 1_555 1_555
C21 C22 1_555 1_555

#END
