
#######################################################################
#
#                 Cambridge Crystallographic Data Centre
#                                CCDC 
#
#######################################################################
#
# If this CIF has been generated from an entry in the Cambridge 
# Structural Database, then it will include bibliographic, chemical, 
# crystal, experimental, refinement or atomic coordinate data resulting 
# from the CCDC's data processing and validation procedures.
#
#######################################################################

data_ZIMRAR
_chemical_formula_moiety         'C18 H15 N1 O3'
_chemical_name_systematic        
'ethyl 4-oxo-2-phenyl-4H-quinolizine-1-carboxylate'
_symmetry_cell_setting           monoclinic
_symmetry_space_group_name_H-M   'P 21/n'
_symmetry_Int_Tables_number      14
_space_group_name_Hall           '-P 2yn'
loop_
_symmetry_equiv_pos_site_id
_symmetry_equiv_pos_as_xyz
1 x,y,z
2 1/2-x,1/2+y,1/2-z
3 -x,-y,-z
4 1/2+x,1/2-y,1/2+z
_cell_length_a                   7.9083(16)
_cell_length_b                   11.626(2)
_cell_length_c                   16.057(3)
_cell_angle_alpha                90
_cell_angle_beta                 97.59(3)
_cell_angle_gamma                90
_cell_volume                     1463.38
_exptl_crystal_colour            colorless
_exptl_crystal_description       Prism
_cell_formula_units_Z            4
loop_
_atom_site_label
_atom_site_type_symbol
_atom_site_fract_x
_atom_site_fract_y
_atom_site_fract_z
C1 C 0.1380(4) 0.3151(3) 0.4256(2)
H1 H 0.0306 0.3016 0.3960
O1 O 0.6002(3) 0.3481(2) 0.69525(16)
N1 N 0.1506(3) 0.3536(2) 0.50769(16)
C2 C 0.2772(5) 0.2967(3) 0.3875(2)
H2 H 0.2660 0.2688 0.3327
O2 O 0.4958(3) 0.5159(2) 0.73483(14)
C3 C 0.4399(4) 0.3200(3) 0.4311(2)
H3 H 0.5365 0.3118 0.4044
O3 O -0.1423(3) 0.3580(2) 0.49358(15)
C4 C 0.4547(4) 0.3544(3) 0.5121(2)
H4 H 0.5629 0.3676 0.5409
C5 C 0.3093(4) 0.3710(3) 0.55488(19)
C6 C 0.3171(4) 0.4060(3) 0.63911(19)
C7 C 0.1643(4) 0.4261(3) 0.6741(2)
C8 C 0.0100(4) 0.4124(3) 0.6251(2)
H5 H -0.0885 0.4284 0.6488
C9 C -0.0083(4) 0.3752(3) 0.5401(2)
C10 C 0.4863(4) 0.4179(3) 0.6914(2)
C11 C 0.6415(5) 0.5269(3) 0.7998(2)
H6 H 0.7463 0.5330 0.7748
H7 H 0.6495 0.4604 0.8366
C12 C 0.6134(5) 0.6334(4) 0.8481(2)
H8 H 0.7071 0.6440 0.8919
H9 H 0.5094 0.6262 0.8724
H10 H 0.6057 0.6985 0.8110
C13 C 0.1679(4) 0.4545(3) 0.7648(2)
C14 C 0.2404(5) 0.3792(3) 0.8266(2)
H11 H 0.2870 0.3101 0.8113
C15 C 0.2437(5) 0.4064(3) 0.9108(2)
H12 H 0.2918 0.3551 0.9516
C16 C 0.1766(5) 0.5087(3) 0.9347(2)
H13 H 0.1816 0.5273 0.9913
C17 C 0.1015(4) 0.5834(3) 0.8735(2)
H14 H 0.0538 0.6518 0.8892
C18 C 0.0969(4) 0.5571(3) 0.7892(2)
H15 H 0.0462 0.6080 0.7487
loop_
_geom_bond_atom_site_label_1
_geom_bond_atom_site_label_2
_geom_bond_site_symmetry_1
_geom_bond_site_symmetry_2
C1 H1 1_555 1_555
O1 C10 1_555 1_555
N1 C1 1_555 1_555
C2 C1 1_555 1_555
H2 C2 1_555 1_555
O2 C10 1_555 1_555
C3 C2 1_555 1_555
H3 C3 1_555 1_555
O3 C9 1_555 1_555
C4 C3 1_555 1_555
H4 C4 1_555 1_555
C5 N1 1_555 1_555
C6 C5 1_555 1_555
C7 C6 1_555 1_555
C8 C7 1_555 1_555
H5 C8 1_555 1_555
C9 N1 1_555 1_555
C10 C6 1_555 1_555
C11 O2 1_555 1_555
H6 C11 1_555 1_555
H7 C11 1_555 1_555
C12 C11 1_555 1_555
H8 C12 1_555 1_555
H9 C12 1_555 1_555
H10 C12 1_555 1_555
C13 C7 1_555 1_555
C14 C13 1_555 1_555
H11 C14 1_555 1_555
C15 C14 1_555 1_555
H12 C15 1_555 1_555
C16 C15 1_555 1_555
H13 C16 1_555 1_555
C17 C16 1_555 1_555
H14 C17 1_555 1_555
C18 C13 1_555 1_555
H15 C18 1_555 1_555
C4 C5 1_555 1_555
C8 C9 1_555 1_555
C17 C18 1_555 1_555

#END
