
#######################################################################
#
#                 Cambridge Crystallographic Data Centre
#                                CCDC 
#
#######################################################################
#
# If this CIF has been generated from an entry in the Cambridge 
# Structural Database, then it will include bibliographic, chemical, 
# crystal, experimental, refinement or atomic coordinate data resulting 
# from the CCDC's data processing and validation procedures.
#
#######################################################################

data_ZIMSUM
_chemical_name_common            
'diethyl 2-(phenyl(2-carboxyphenylamino)methyl)malonate'
_chemical_formula_moiety         'C21 H23 N1 O6'
_chemical_name_systematic        
'2-((3-ethoxy-2-(ethoxycarbonyl)-3-oxo-1-phenylpropyl)amino)benzoic acid'
_symmetry_cell_setting           triclinic
_symmetry_space_group_name_H-M   'P -1'
_symmetry_Int_Tables_number      2
_space_group_name_Hall           '-P 1'
loop_
_symmetry_equiv_pos_site_id
_symmetry_equiv_pos_as_xyz
1 x,y,z
2 -x,-y,-z
_cell_length_a                   9.4210(11)
_cell_length_b                   10.3618(12)
_cell_length_c                   10.9588(13)
_cell_angle_alpha                91.7017(18)
_cell_angle_beta                 107.9031(18)
_cell_angle_gamma                93.1693(17)
_cell_volume                     1015.2
_exptl_crystal_description       block
_chemical_melting_point          '162 deg.C'
_cell_formula_units_Z            2
loop_
_atom_site_label
_atom_site_type_symbol
_atom_site_fract_x
_atom_site_fract_y
_atom_site_fract_z
O1 O 0.92918(12) 0.10433(11) 0.39310(11)
N1 N 0.76724(13) 0.25996(12) 0.21911(12)
H1 H 0.8510 0.2248 0.2474
C1 C 0.68636(16) 0.16176(14) 0.38794(14)
C2 C 0.66094(16) 0.23669(13) 0.27785(14)
C3 C 0.74437(16) 0.34191(14) 0.11060(14)
H2 H 0.6955 0.4176 0.1298
O2 O 1.12728(12) 0.48262(11) 0.23782(11)
C4 C 0.64248(17) 0.27881(15) -0.01548(15)
O3 O 1.01682(14) 0.19249(12) 0.14139(13)
C5 C 0.89623(16) 0.39217(14) 0.09803(14)
H3 H 0.8748 0.4439 0.0218
C6 C 0.82518(16) 0.09661(14) 0.43889(14)
C7 C 0.57497(18) 0.14564(15) 0.44771(15)
H4 H 0.5938 0.0985 0.5213
C8 C 0.51890(17) 0.28723(15) 0.23060(15)
H5 H 0.4977 0.3348 0.1572
C9 C 0.99075(18) 0.28454(15) 0.07724(15)
C10 C 0.97956(17) 0.48307(14) 0.21346(15)
O4 O 0.91822(14) 0.54923(12) 0.27017(12)
O5 O 1.0520(5) 0.3117(3) -0.0154(3)
C11 C 0.41147(18) 0.26776(16) 0.29056(16)
H6 H 0.3191 0.3021 0.2570
C12 C 0.43880(18) 0.19761(17) 0.40049(17)
H7 H 0.3663 0.1860 0.4414
C13 C 0.5534(2) 0.35545(17) -0.10570(16)
H8 H 0.5581 0.4443 -0.0887
C14 C 0.6344(2) 0.14717(17) -0.04321(19)
H9 H 0.6923 0.0941 0.0166
C15 C 0.4573(2) 0.3015(2) -0.22121(18)
H10 H 0.3970 0.3539 -0.2803
C16 C 0.4518(2) 0.1702(2) -0.24762(18)
H11 H 0.3881 0.1335 -0.3249
C17 C 0.5406(3) 0.0935(2) -0.1595(2)
H12 H 0.5378 0.0050 -0.1779
C18 C 1.2191(2) 0.56666(19) 0.34671(19)
H13 H 1.1708 0.6465 0.3494
H14 H 1.3156 0.5882 0.3354
C19 C 1.2410(3) 0.5021(2) 0.4700(2)
H15 H 1.2790 0.4188 0.4641
H16 H 1.1472 0.4916 0.4872
H17 H 1.3111 0.5543 0.5383
C20 C 1.1454(3) 0.2145(2) -0.0479(2)
H18 H 1.2275 0.2578 -0.0698
H19 H 1.1869 0.1632 0.0257
C21 C 1.0555(4) 0.1310(2) -0.1555(3)
H20 H 0.9748 0.0878 -0.1332
H21 H 1.1165 0.0678 -0.1760
H22 H 1.0158 0.1819 -0.2285
O6 O 0.82920(13) 0.02512(12) 0.53709(12)
H23 H 0.9071 -0.0120 0.5578
H24? H 1.2146 0.2764 -0.0684
H25? H 1.1933 0.1698 0.0290
O7? O 0.972(3) 0.2748(15) -0.0526(17)
loop_
_geom_bond_atom_site_label_1
_geom_bond_atom_site_label_2
_geom_bond_site_symmetry_1
_geom_bond_site_symmetry_2
O1 C6 1_555 1_555
N1 H1 1_555 1_555
C1 C2 1_555 1_555
C2 N1 1_555 1_555
C3 N1 1_555 1_555
H2 C3 1_555 1_555
O2 C10 1_555 1_555
C4 C3 1_555 1_555
O3 C9 1_555 1_555
C5 C3 1_555 1_555
H3 C5 1_555 1_555
C6 C1 1_555 1_555
C7 C1 1_555 1_555
H4 C7 1_555 1_555
C8 C2 1_555 1_555
H5 C8 1_555 1_555
C9 C5 1_555 1_555
C10 C5 1_555 1_555
O4 C10 1_555 1_555
O5 C9 1_555 1_555
C11 C8 1_555 1_555
H6 C11 1_555 1_555
C12 C7 1_555 1_555
H7 C12 1_555 1_555
C13 C4 1_555 1_555
H8 C13 1_555 1_555
C14 C4 1_555 1_555
H9 C14 1_555 1_555
C15 C13 1_555 1_555
H10 C15 1_555 1_555
C16 C15 1_555 1_555
H11 C16 1_555 1_555
C17 C14 1_555 1_555
H12 C17 1_555 1_555
C18 O2 1_555 1_555
H13 C18 1_555 1_555
H14 C18 1_555 1_555
C19 C18 1_555 1_555
H15 C19 1_555 1_555
H16 C19 1_555 1_555
H17 C19 1_555 1_555
C20 O5 1_555 1_555
H18 C20 1_555 1_555
H19 C20 1_555 1_555
C21 C20 1_555 1_555
H20 C21 1_555 1_555
H21 C21 1_555 1_555
H22 C21 1_555 1_555
O6 C6 1_555 1_555
H23 O6 1_555 1_555
C11 C12 1_555 1_555
C16 C17 1_555 1_555

#END
