
#######################################################################
#
#                 Cambridge Crystallographic Data Centre
#                                CCDC 
#
#######################################################################
#
# If this CIF has been generated from an entry in the Cambridge 
# Structural Database, then it will include bibliographic, chemical, 
# crystal, experimental, refinement or atomic coordinate data resulting 
# from the CCDC's data processing and validation procedures.
#
#######################################################################

data_ZINCEG
_chemical_formula_moiety         'C20 H25 N5 O3'
_chemical_name_systematic        
2-(2-(((Dimethylamino)acetyl)amino)-3-phenylpropanoyl)-N-phenylhydrazinecarboxamide
_symmetry_cell_setting           orthorhombic
_symmetry_space_group_name_H-M   'P 21 21 21'
_symmetry_Int_Tables_number      19
_space_group_name_Hall           'P 2ac 2ab'
loop_
_symmetry_equiv_pos_site_id
_symmetry_equiv_pos_as_xyz
1 x,y,z
2 1/2-x,-y,1/2+z
3 1/2+x,1/2-y,-z
4 -x,1/2+y,1/2-z
_cell_length_a                   8.6444(15)
_cell_length_b                   15.088(3)
_cell_length_c                   15.404(3)
_cell_angle_alpha                90
_cell_angle_beta                 90
_cell_angle_gamma                90
_cell_volume                     2009.09
_cell_formula_units_Z            4
loop_
_atom_site_label
_atom_site_type_symbol
_atom_site_fract_x
_atom_site_fract_y
_atom_site_fract_z
O1 O 0.22157(13) 0.82469(8) 0.01614(7)
N1 N 0.42864(15) 0.73523(8) 0.01432(8)
H1 H 0.5137 0.7197 0.0389
O2 O 0.62598(13) 0.92176(7) 0.00563(7)
C1 C 0.34554(16) 0.80308(10) 0.04621(9)
O3 O 0.29671(15) 0.70384(8) -0.19710(8)
N2 N 0.48496(15) 0.79773(9) -0.14671(8)
H2 H 0.5397 0.8086 -0.1013
N3 N 0.42889(15) 0.94520(8) 0.09792(8)
H3 H 0.3675 0.9834 0.1210
C2 C 0.35833(18) 0.90014(10) 0.27684(10)
C3 C 0.41621(17) 0.85252(9) 0.12267(9)
H4 H 0.5189 0.8285 0.1358
N4 N 0.37604(15) 0.69036(8) -0.05873(8)
H5 H 0.3410 0.6372 -0.0539
C4 C 0.51500(18) 0.85121(10) -0.21989(10)
C5 C 0.37993(17) 0.73112(10) -0.13935(10)
C6 C 0.31051(18) 0.84267(10) 0.20139(9)
H6 H 0.2057 0.8579 0.1846
H7 H 0.3106 0.7812 0.2198
C7 C 0.61824(19) 0.91998(11) -0.20891(11)
H8 H 0.6670 0.9278 -0.1556
C8 C 0.53313(17) 0.97196(10) 0.04054(10)
N5 N 0.42734(19) 1.12132(9) 0.07171(11)
C9 C 0.50190(19) 0.89154(10) 0.31520(10)
H9 H 0.5706 0.8488 0.2950
C10 C 0.5292(2) 1.06931(10) 0.01752(12)
H10 H 0.6331 1.0931 0.0221
H11 H 0.4965 1.0754 -0.0424
C11 C 0.4437(2) 0.83896(12) -0.29989(11)
H12 H 0.3746 0.7925 -0.3082
C12 C 0.3009(3) 1.01910(13) 0.37538(13)
H13 H 0.2323 1.0619 0.3954
C13 C 0.2585(2) 0.96454(13) 0.30696(11)
H14 H 0.1620 0.9714 0.2812
C14 C 0.6499(2) 0.97747(12) -0.27664(12)
H15 H 0.7197 1.0236 -0.2687
C15 C 0.5442(2) 0.94605(12) 0.38345(11)
H16 H 0.6409 0.9395 0.4091
C16 C 0.4435(2) 1.01033(11) 0.41376(11)
H17 H 0.4720 1.0471 0.4595
C17 C 0.5782(2) 0.96659(13) -0.35588(12)
H18 H 0.5978 1.0058 -0.4011
C18 C 0.4772(3) 0.89693(14) -0.36716(12)
H19 H 0.4305 0.8886 -0.4209
C19 C 0.5048(3) 1.14733(14) 0.15209(15)
H20 H 0.5408 1.0953 0.1818
H21 H 0.4333 1.1787 0.1885
H22 H 0.5911 1.1850 0.1387
C20 C 0.3710(3) 1.19863(13) 0.02557(18)
H23 H 0.4571 1.2341 0.0071
H24 H 0.3060 1.2329 0.0633
H25 H 0.3126 1.1800 -0.0242
loop_
_geom_bond_atom_site_label_1
_geom_bond_atom_site_label_2
_geom_bond_site_symmetry_1
_geom_bond_site_symmetry_2
O1 C1 1_555 1_555
N1 H1 1_555 1_555
O2 C8 1_555 1_555
C1 N1 1_555 1_555
O3 C5 1_555 1_555
N2 H2 1_555 1_555
N3 H3 1_555 1_555
C2 C6 1_555 1_555
C3 C1 1_555 1_555
H4 C3 1_555 1_555
N4 N1 1_555 1_555
H5 N4 1_555 1_555
C4 N2 1_555 1_555
C5 N2 1_555 1_555
C6 C3 1_555 1_555
H6 C6 1_555 1_555
H7 C6 1_555 1_555
C7 C4 1_555 1_555
H8 C7 1_555 1_555
C8 N3 1_555 1_555
N5 C10 1_555 1_555
C9 C2 1_555 1_555
H9 C9 1_555 1_555
C10 C8 1_555 1_555
H10 C10 1_555 1_555
H11 C10 1_555 1_555
C11 C4 1_555 1_555
H12 C11 1_555 1_555
C12 H13 1_555 1_555
C13 C2 1_555 1_555
H14 C13 1_555 1_555
C14 C7 1_555 1_555
H15 C14 1_555 1_555
C15 C9 1_555 1_555
H16 C15 1_555 1_555
C16 C12 1_555 1_555
H17 C16 1_555 1_555
C17 C14 1_555 1_555
H18 C17 1_555 1_555
C18 C11 1_555 1_555
H19 C18 1_555 1_555
C19 N5 1_555 1_555
H20 C19 1_555 1_555
H21 C19 1_555 1_555
H22 C19 1_555 1_555
C20 N5 1_555 1_555
H23 C20 1_555 1_555
H24 C20 1_555 1_555
H25 C20 1_555 1_555
N3 C3 1_555 1_555
N4 C5 1_555 1_555
C12 C13 1_555 1_555
C15 C16 1_555 1_555
C17 C18 1_555 1_555

#END
