
#######################################################################
#
#                 Cambridge Crystallographic Data Centre
#                                CCDC 
#
#######################################################################
#
# If this CIF has been generated from an entry in the Cambridge 
# Structural Database, then it will include bibliographic, chemical, 
# crystal, experimental, refinement or atomic coordinate data resulting 
# from the CCDC's data processing and validation procedures.
#
#######################################################################

data_ZINDIL
_chemical_name_common            
2-azido-2-deoxy-3,5:6,7-di-O-isopropylidine-D-glycero-D-gulo-1,4-heptono-lactone
_chemical_formula_moiety         'C13 H19 N3 O6'
_chemical_name_systematic        
7-Azido-4-(2,2-dimethyl-1,3-dioxolan-4-yl)-2,2-dimethyltetrahydro-6H-furo[3,2-d][1,3]dioxin-6-one
_symmetry_cell_setting           orthorhombic
_symmetry_space_group_name_H-M   'P 2 21 21'
_symmetry_Int_Tables_number      18
_space_group_name_Hall           'P 2bc 2'
loop_
_symmetry_equiv_pos_site_id
_symmetry_equiv_pos_as_xyz
1 x,y,z
2 x,-y,-z
3 -x,1/2+y,1/2-z
4 -x,1/2-y,1/2+z
_cell_length_a                   6.17130(10)
_cell_length_b                   12.5187(3)
_cell_length_c                   19.7716(5)
_cell_angle_alpha                90
_cell_angle_beta                 90
_cell_angle_gamma                90
_cell_volume                     1527.49
_exptl_crystal_colour            colorless
_exptl_crystal_description       lath
_cell_formula_units_Z            4
loop_
_atom_site_label
_atom_site_type_symbol
_atom_site_fract_x
_atom_site_fract_y
_atom_site_fract_z
O1 O 1.0553(3) 0.10258(13) 0.55033(8)
C1 C 0.8273(4) 0.13514(19) 0.54868(12)
C2 C 0.8202(4) 0.22398(18) 0.49603(12)
O2 O 0.9024(3) 0.32126(13) 0.52290(8)
C3 C 0.8045(5) 0.35346(19) 0.58537(12)
O3 O 0.8444(3) 0.27324(13) 0.63521(8)
C4 C 0.7586(4) 0.17106(19) 0.61877(11)
C5 C 0.8337(4) 0.09595(16) 0.67414(10)
O4 O 0.7627(3) -0.00990(12) 0.65862(7)
C6 C 0.6489(3) -0.05399(13) 0.71560(9)
O5 O 0.6928(4) 0.01613(15) 0.77009(8)
C7 C 0.7285(6) 0.11931(15) 0.74261(12)
C8 C 0.7435(7) -0.1612(2) 0.73254(13)
C9 C 0.4076(7) -0.0577(3) 0.70149(16)
C10 C 0.5640(5) 0.3761(2) 0.57741(14)
C11 C 0.9290(6) 0.4517(2) 0.60756(15)
C12 C 0.9884(4) 0.18336(19) 0.44616(12)
C13 C 1.1559(4) 0.13572(19) 0.49314(13)
O6 O 1.3476(3) 0.12776(15) 0.48509(10)
N1 N 1.0677(4) 0.25979(17) 0.39597(10)
N2 N 1.2240(4) 0.31487(17) 0.41294(10)
N3 N 1.3682(5) 0.3694(2) 0.41929(14)
H1 H 0.7415 0.0733 0.5342
H2 H 0.6766 0.2327 0.4768
H3 H 0.5979 0.1752 0.6197
H4 H 0.9928 0.0972 0.6763
H5 H 0.6996 0.1841 0.7612
H6 H 0.6795 -0.1873 0.7735
H7 H 0.8980 -0.1584 0.7383
H8 H 0.7056 -0.2080 0.6954
H9 H 0.3316 -0.0936 0.7376
H10 H 0.3558 0.0138 0.6964
H11 H 0.3848 -0.0944 0.6593
H12 H 0.5032 0.4009 0.6197
H13 H 0.5452 0.4300 0.5429
H14 H 0.4916 0.3114 0.5632
H15 H 0.8722 0.4762 0.6506
H16 H 1.0816 0.4353 0.6122
H17 H 0.9126 0.5076 0.5743
H18 H 0.9228 0.1242 0.4210
C14? C 0.6189(10) -0.0451(3) 0.7077(3)
O7? O 0.5771(15) 0.0454(5) 0.7491(4)
C15? C 0.7557(16) 0.1133(4) 0.7444(3)
C16? C 0.728(2) -0.1286(8) 0.7504(5)
C17? C 0.4130(15) -0.0836(10) 0.6754(5)
H19? H 0.6218 -0.1667 0.7764
H20? H 0.8379 -0.1011 0.7801
H21? H 0.7940 -0.1763 0.7184
H22? H 0.3086 -0.0971 0.7104
H23? H 0.3604 -0.0284 0.6461
H24? H 0.4372 -0.1477 0.6497
H25? H 0.8133 0.1600 0.7778
loop_
_geom_bond_atom_site_label_1
_geom_bond_atom_site_label_2
_geom_bond_site_symmetry_1
_geom_bond_site_symmetry_2
O1 C1 1_555 1_555
C1 C2 1_555 1_555
C2 O2 1_555 1_555
O2 C3 1_555 1_555
C3 O3 1_555 1_555
O3 C4 1_555 1_555
C4 C1 1_555 1_555
C5 C4 1_555 1_555
O4 C5 1_555 1_555
C6 O4 1_555 1_555
O5 C6 1_555 1_555
C7 C5 1_555 1_555
C8 C6 1_555 1_555
C9 C6 1_555 1_555
C10 C3 1_555 1_555
C11 C3 1_555 1_555
C12 C2 1_555 1_555
C13 O1 1_555 1_555
O6 C13 1_555 1_555
N1 C12 1_555 1_555
N2 N1 1_555 1_555
N3 N2 1_555 1_555
H1 C1 1_555 1_555
H2 C2 1_555 1_555
H3 C4 1_555 1_555
H4 C5 1_555 1_555
H5 C7 1_555 1_555
H6 C8 1_555 1_555
H7 C8 1_555 1_555
H8 C8 1_555 1_555
H9 C9 1_555 1_555
H10 C9 1_555 1_555
H11 C9 1_555 1_555
H12 C10 1_555 1_555
H13 C10 1_555 1_555
H14 C10 1_555 1_555
H15 C11 1_555 1_555
H16 C11 1_555 1_555
H17 C11 1_555 1_555
H18 C12 1_555 1_555
O5 C7 1_555 1_555
C12 C13 1_555 1_555

#END
