
#######################################################################
#
#                 Cambridge Crystallographic Data Centre
#                                CCDC 
#
#######################################################################
#
# If this CIF has been generated from an entry in the Cambridge 
# Structural Database, then it will include bibliographic, chemical, 
# crystal, experimental, refinement or atomic coordinate data resulting 
# from the CCDC's data processing and validation procedures.
#
#######################################################################

data_ZINLUF
_chemical_formula_moiety         'C20 H16 N4 O1'
_chemical_name_systematic        
2-(5-(Phenoxymethyl)-4-phenyl-4H-1,2,4-triazol-3-yl)pyridine
_symmetry_cell_setting           monoclinic
_symmetry_space_group_name_H-M   'P 21/c'
_symmetry_Int_Tables_number      14
_space_group_name_Hall           '-P 2ybc'
loop_
_symmetry_equiv_pos_site_id
_symmetry_equiv_pos_as_xyz
1 x,y,z
2 -x,1/2+y,1/2-z
3 -x,-y,-z
4 x,1/2-y,1/2+z
_cell_length_a                   16.772(3)
_cell_length_b                   12.515(2)
_cell_length_c                   8.2044(14)
_cell_angle_alpha                90
_cell_angle_beta                 95.801(2)
_cell_angle_gamma                90
_cell_volume                     1713.3
_cell_formula_units_Z            4
loop_
_atom_site_label
_atom_site_type_symbol
_atom_site_fract_x
_atom_site_fract_y
_atom_site_fract_z
N1 N 0.23116(11) 0.33112(14) 0.2061(3)
O1 O 0.38824(9) 0.17268(15) 0.2475(2)
C1 C 0.25828(12) 0.23583(16) 0.1763(3)
N2 N 0.15661(11) 0.31821(14) 0.2613(3)
C2 C 0.14133(12) 0.21537(16) 0.2629(3)
N3 N 0.20422(9) 0.15984(12) 0.2102(2)
C3 C 0.06605(12) 0.16817(17) 0.3052(3)
N4 N 0.04395(11) 0.07635(15) 0.2301(3)
C4 C 0.01964(15) 0.2194(2) 0.4101(3)
H1 H 0.0358 0.2840 0.4589
C5 C -0.05181(17) 0.1717(3) 0.4408(4)
H2 H -0.0843 0.2039 0.5119
C6 C -0.07449(17) 0.0771(3) 0.3661(4)
H3 H -0.1222 0.0437 0.3852
C7 C -0.02502(15) 0.0338(2) 0.2636(4)
H4 H -0.0405 -0.0304 0.2129
C8 C 0.33662(13) 0.21386(19) 0.1153(3)
H5 H 0.3303 0.1623 0.0266
H6 H 0.3588 0.2791 0.0745
C9 C 0.46215(14) 0.1359(2) 0.2129(3)
C10 C 0.5033(4) 0.0834(8) 0.3366(9)
H7 H 0.4856 0.0795 0.4403
C11 C 0.5758(3) 0.0339(5) 0.2997(8)
H8 H 0.5978 -0.0185 0.3709
C12 C 0.6124(2) 0.0568(4) 0.1751(6)
H9 H 0.6628 0.0287 0.1629
C13 C 0.5754(3) 0.1231(4) 0.0617(7)
H10 H 0.6014 0.1423 -0.0288
C14 C 0.4986(2) 0.1638(3) 0.0773(6)
H11 H 0.4732 0.2085 -0.0023
C15 C 0.21727(11) 0.04561(15) 0.2085(2)
C16 C 0.20188(14) -0.00966(17) 0.0641(3)
H12 H 0.1824 0.0254 -0.0317
C17 C 0.21598(18) -0.11832(19) 0.0644(3)
H13 H 0.2054 -0.1571 -0.0321
C18 C 0.24531(19) -0.16950(19) 0.2049(4)
H14 H 0.2552 -0.2426 0.2033
C19 C 0.26011(19) -0.1135(2) 0.3476(3)
H15 H 0.2798 -0.1488 0.4430
C20 C 0.24589(15) -0.00423(17) 0.3511(3)
H16 H 0.2556 0.0342 0.4481
C21? C 0.4894(9) 0.0410(18) 0.276(3)
H17? H 0.4557 -0.0141 0.3026
loop_
_geom_bond_atom_site_label_1
_geom_bond_atom_site_label_2
_geom_bond_site_symmetry_1
_geom_bond_site_symmetry_2
N1 C1 1_555 1_555
O1 C8 1_555 1_555
C1 N3 1_555 1_555
N2 N1 1_555 1_555
C2 N2 1_555 1_555
N3 C2 1_555 1_555
C3 C2 1_555 1_555
N4 C3 1_555 1_555
C4 C3 1_555 1_555
H1 C4 1_555 1_555
C5 C4 1_555 1_555
H2 C5 1_555 1_555
C6 C5 1_555 1_555
H3 C6 1_555 1_555
C7 N4 1_555 1_555
H4 C7 1_555 1_555
C8 C1 1_555 1_555
H5 C8 1_555 1_555
H6 C8 1_555 1_555
C9 O1 1_555 1_555
C10 C9 1_555 1_555
H7 C10 1_555 1_555
C11 C10 1_555 1_555
H8 C11 1_555 1_555
C12 C11 1_555 1_555
H9 C12 1_555 1_555
C13 C12 1_555 1_555
H10 C13 1_555 1_555
C14 C9 1_555 1_555
H11 C14 1_555 1_555
C15 N3 1_555 1_555
C16 C15 1_555 1_555
H12 C16 1_555 1_555
C17 C16 1_555 1_555
H13 C17 1_555 1_555
C18 C17 1_555 1_555
H14 C18 1_555 1_555
C19 C18 1_555 1_555
H15 C19 1_555 1_555
C20 C15 1_555 1_555
H16 C20 1_555 1_555
C6 C7 1_555 1_555
C13 C14 1_555 1_555
C19 C20 1_555 1_555

#END
