
#######################################################################
#
#                 Cambridge Crystallographic Data Centre
#                                CCDC 
#
#######################################################################
#
# If this CIF has been generated from an entry in the Cambridge 
# Structural Database, then it will include bibliographic, chemical, 
# crystal, experimental, refinement or atomic coordinate data resulting 
# from the CCDC's data processing and validation procedures.
#
#######################################################################

data_ZIPBIL
_chemical_name_common            
'1,1,3,3-tetramethylguanidine p-toluenesulfinate'
_chemical_formula_moiety         'C5 H14 N3 1+,C7 H7 O2 S1 1-'
_chemical_name_systematic        
'bis(dimethylamino)methaniminium 4-methylbenzenesulfinate'
_symmetry_cell_setting           monoclinic
_symmetry_space_group_name_H-M   'P 21/c'
_symmetry_Int_Tables_number      14
_space_group_name_Hall           '-P 2ybc'
loop_
_symmetry_equiv_pos_site_id
_symmetry_equiv_pos_as_xyz
1 x,y,z
2 -x,1/2+y,1/2-z
3 -x,-y,-z
4 x,1/2-y,1/2+z
_cell_length_a                   11.0959(8)
_cell_length_b                   7.4038(5)
_cell_length_c                   17.1944(13)
_cell_angle_alpha                90
_cell_angle_beta                 92.1150(10)
_cell_angle_gamma                90
_cell_volume                     1411.59
_exptl_crystal_colour            colorless
_exptl_crystal_description       needle
_cell_formula_units_Z            4
loop_
_atom_site_label
_atom_site_type_symbol
_atom_site_fract_x
_atom_site_fract_y
_atom_site_fract_z
S1 S 0.30075(2) 0.51868(4) 0.394666(15)
O1 O 0.37108(8) 0.68587(13) 0.37629(6)
O2 O 0.28844(7) 0.49282(11) 0.48104(5)
C1 C 0.14936(9) 0.58534(15) 0.36374(6)
C2 C 0.13042(10) 0.68386(16) 0.29538(7)
H1 H 0.1973 0.7237 0.2670
C3 C 0.05119(10) 0.53005(15) 0.40548(6)
H2 H 0.0637 0.4624 0.4520
C4 C 0.01368(10) 0.72398(16) 0.26864(7)
H3 H 0.0014 0.7899 0.2216
C5 C -0.06587(10) 0.57360(15) 0.37931(6)
H4 H -0.1325 0.5382 0.4090
C6 C -0.08581(10) 0.66839(15) 0.31013(7)
C7 C -0.21214(10) 0.70739(19) 0.27933(7)
H5 H -0.2703 0.6611 0.3159
H6 H -0.2254 0.6483 0.2287
H7 H -0.2228 0.8381 0.2733
N1 N 0.40988(9) 0.19986(14) 0.55558(6)
H8 H 0.4796(14) 0.227(2) 0.5750(9)
H9 H 0.3712(14) 0.282(2) 0.5295(9)
N2 N 0.39917(8) -0.06040(13) 0.63074(6)
N3 N 0.25970(9) -0.01043(13) 0.52913(6)
C8 C 0.35733(10) 0.04483(15) 0.57169(6)
C9 C 0.47598(10) 0.01253(16) 0.69412(7)
H10 H 0.5608 -0.0074 0.6827
H11 H 0.4576 -0.0485 0.7429
H12 H 0.4610 0.1423 0.6993
C10 C 0.39775(11) -0.25785(16) 0.62565(7)
H13 H 0.3636 -0.2946 0.5747
H14 H 0.3484 -0.3071 0.6667
H15 H 0.4803 -0.3040 0.6321
C11 C 0.16244(11) -0.11332(18) 0.56260(8)
H16 H 0.1567 -0.2321 0.5376
H17 H 0.0861 -0.0483 0.5542
H18 H 0.1791 -0.1288 0.6186
C12 C 0.23347(12) 0.05848(17) 0.45081(7)
H19 H 0.2005 -0.0390 0.4179
H20 H 0.3079 0.1041 0.4289
H21 H 0.1745 0.1567 0.4531
loop_
_geom_bond_atom_site_label_1
_geom_bond_atom_site_label_2
_geom_bond_site_symmetry_1
_geom_bond_site_symmetry_2
S1 O1 1_555 1_555
O2 S1 1_555 1_555
C1 S1 1_555 1_555
C2 C1 1_555 1_555
H1 C2 1_555 1_555
C3 C1 1_555 1_555
H2 C3 1_555 1_555
C4 C2 1_555 1_555
H3 C4 1_555 1_555
C5 C3 1_555 1_555
H4 C5 1_555 1_555
C6 C4 1_555 1_555
C7 C6 1_555 1_555
H5 C7 1_555 1_555
H6 C7 1_555 1_555
H7 C7 1_555 1_555
N1 H8 1_555 1_555
H9 N1 1_555 1_555
N2 C8 1_555 1_555
N3 C8 1_555 1_555
C8 N1 1_555 1_555
C9 N2 1_555 1_555
H10 C9 1_555 1_555
H11 C9 1_555 1_555
H12 C9 1_555 1_555
C10 N2 1_555 1_555
H13 C10 1_555 1_555
H14 C10 1_555 1_555
H15 C10 1_555 1_555
C11 N3 1_555 1_555
H16 C11 1_555 1_555
H17 C11 1_555 1_555
H18 C11 1_555 1_555
C12 N3 1_555 1_555
H19 C12 1_555 1_555
H20 C12 1_555 1_555
H21 C12 1_555 1_555
C5 C6 1_555 1_555

#END
