
#######################################################################
#
#                 Cambridge Crystallographic Data Centre
#                                CCDC 
#
#######################################################################
#
# If this CIF has been generated from an entry in the Cambridge 
# Structural Database, then it will include bibliographic, chemical, 
# crystal, experimental, refinement or atomic coordinate data resulting 
# from the CCDC's data processing and validation procedures.
#
#######################################################################

data_ZIPYOP
_chemical_formula_moiety         'C44 H48 N24 O12,C7 H9 N1,8(H2 O1)'
_chemical_name_systematic        
'dicyclohexancucurbit[6]uril 4-methylaniline clathrate octahydrate'
_symmetry_cell_setting           monoclinic
_symmetry_space_group_name_H-M   'P 21'
_symmetry_Int_Tables_number      4
_space_group_name_Hall           'P 2yb'
loop_
_symmetry_equiv_pos_site_id
_symmetry_equiv_pos_as_xyz
1 x,y,z
2 -x,1/2+y,-z
_cell_length_a                   12.697(3)
_cell_length_b                   16.573(4)
_cell_length_c                   14.450(3)
_cell_angle_alpha                90
_cell_angle_beta                 99.088(3)
_cell_angle_gamma                90
_cell_volume                     3002.51
_exptl_crystal_colour            colorless
_exptl_crystal_description       block
_cell_formula_units_Z            2
loop_
_atom_site_label
_atom_site_type_symbol
_atom_site_fract_x
_atom_site_fract_y
_atom_site_fract_z
N1 N 0.4583(4) 0.3997(3) 0.7830(3)
N2 N 0.8811(4) 0.0155(3) 0.8877(3)
N3 N 0.6404(4) 0.2637(3) 1.2417(3)
N4 N 0.3967(4) 0.3162(3) 0.9827(3)
C1 C 0.6981(5) 0.2640(4) 0.5981(4)
C2 C 0.6794(5) 0.1866(4) 1.2394(4)
N5 N 0.5920(4) 0.2591(3) 0.5676(3)
C3 C 0.8570(4) 0.0469(4) 1.1192(4)
N6 N 0.8914(3) 0.3061(3) 1.2342(3)
N7 N 0.9236(4) 0.0466(3) 1.0526(3)
N8 N 0.9802(4) 0.1354(3) 0.8580(3)
N9 N 0.8976(4) 0.1023(3) 1.1873(3)
C4 C 0.8436(4) 0.3697(4) 1.1842(4)
N10 N 0.5058(4) 0.4292(3) 0.9477(3)
N11 N 0.7877(4) 0.1892(3) 1.2673(3)
N12 N 0.4813(4) 0.3424(3) 0.6498(3)
N13 N 0.5984(4) 0.4229(3) 1.0897(3)
C5 C 0.3781(5) 0.3131(4) 0.6630(4)
H1 H 0.3223 0.3280 0.6109
O1 O 0.6789(3) 0.4762(3) 0.9701(3)
O2 O 0.4050(4) 0.1945(3) 1.0612(3)
O3 O 0.6045(4) 0.4342(3) 0.7170(3)
O4 O 0.7487(4) 0.3261(3) 0.6164(3)
O5 O 0.7777(3) 0.0055(3) 1.1179(3)
O6 O 0.3204(4) 0.1496(3) 0.8013(3)
O7 O 0.9627(4) 0.2594(3) 0.7838(4)
O8 O 0.7207(3) -0.0521(3) 0.8569(3)
O9 O 0.8844(3) 0.4116(3) 1.1299(3)
O10 O 1.0343(4) 0.3009(3) 1.0332(3)
O11 O 0.6271(4) 0.1266(3) 1.2189(3)
O12 O 0.4963(4) 0.0262(3) 0.6984(3)
N14 N 0.6392(4) 0.0689(3) 0.6314(3)
N15 N 0.3480(4) 0.2856(3) 0.8172(3)
N16 N 0.7404(4) 0.1883(3) 0.5979(3)
N17 N 1.0318(4) 0.1619(3) 1.0230(3)
N18 N 0.3760(4) 0.2269(3) 0.6849(3)
C6 C 0.5249(4) 0.3952(4) 0.7173(4)
C7 C 0.4957(4) 0.3928(4) 1.1023(4)
H2 H 0.4641 0.4259 1.1469
N19 N 0.4920(4) 0.1427(3) 0.6096(3)
C8 C 0.9983(5) 0.2808(4) 1.2236(4)
H3 H 1.0373 0.3274 1.2067
H4 H 1.0344 0.2613 1.2836
N20 N 0.8841(4) 0.1431(3) 0.7157(3)
N21 N 0.7900(4) 0.0214(3) 0.7446(3)
N22 N 0.7457(4) 0.3811(3) 1.2077(3)
C9 C 1.0255(5) 0.2353(4) 1.0664(4)
N23 N 1.0023(4) 0.2188(3) 1.1546(3)
C10 C 0.5387(5) 0.0744(4) 0.6511(4)
N24 N 0.4929(4) 0.3090(3) 1.1250(3)
C11 C 0.9436(5) 0.1871(4) 0.7859(4)
C12 C 0.4278(5) 0.2646(4) 1.0557(4)
C13 C 0.6007(5) 0.4451(4) 0.9982(4)
C14 C 0.5259(4) 0.2783(4) 1.2179(4)
H5 H 0.4884 0.2282 1.2245
H6 H 0.5049 0.3165 1.2625
C15 C 0.8891(5) 0.0576(4) 0.7337(4)
H7 H 0.9244 0.0285 0.6881
C16 C 0.5245(5) 0.3299(4) 0.5639(4)
H8 H 0.5656 0.3770 0.5519
H9 H 0.4661 0.3244 0.5123
C17 C 0.4299(5) 0.3976(4) 1.0032(4)
H10 H 0.3686 0.4337 1.0017
C18 C 0.4990(6) 0.1712(4) 0.4432(4)
H11 H 0.5392 0.2008 0.4026
H12 H 0.4286 0.1953 0.4377
C19 C 0.5549(5) 0.1783(4) 0.5441(4)
C20 C 0.8536(5) 0.1756(4) 0.6222(4)
H13 H 0.8901 0.2266 0.6178
H14 H 0.8768 0.1388 0.5773
C21 C 0.8254(5) 0.2702(4) 1.2965(4)
C22 C 0.3467(5) 0.2141(4) 0.7716(4)
C23 C 0.9997(4) 0.1334(4) 1.1734(4)
H15 H 1.0559 0.1179 1.2249
C24 C 0.9148(5) -0.0153(4) 0.9814(4)
H16 H 0.8641 -0.0556 0.9950
H17 H 0.9835 -0.0415 0.9839
C25 C 0.9538(4) 0.0524(4) 0.8343(4)
H18 H 1.0182 0.0196 0.8354
C26 C 1.0644(5) 0.1584(4) 0.9313(4)
H19 H 1.0912 0.2109 0.9166
H20 H 1.1225 0.1200 0.9334
C27 C 1.0177(5) 0.0945(4) 1.0804(4)
H21 H 1.0816 0.0605 1.0898
C28 C 0.7206(4) 0.3224(4) 1.2775(4)
C29 C 0.3611(4) 0.3540(4) 0.7565(4)
H22 H 0.2982 0.3890 0.7479
C30 C 0.8775(5) 0.2733(4) 1.3980(4)
H23 H 0.9460 0.2463 1.4047
H24 H 0.8333 0.2447 1.4361
C31 C 0.4726(5) 0.4628(4) 0.8551(4)
H25 H 0.5258 0.5010 0.8412
H26 H 0.4060 0.4917 0.8539
C32 C 0.3834(5) 0.1650(4) 0.6182(4)
H27 H 0.3471 0.1828 0.5575
H28 H 0.3465 0.1176 0.6358
C33 C 0.6599(5) 0.1283(4) 0.5619(4)
C34 C 0.6791(5) 0.4464(4) 1.1680(4)
H29 H 0.7238 0.4879 1.1470
H30 H 0.6439 0.4698 1.2166
C35 C 0.7886(4) -0.0094(4) 0.8325(4)
C36 C 0.8497(5) 0.1169(4) 1.2698(4)
H31 H 0.8043 0.0714 1.2788
H32 H 0.9058 0.1193 1.3237
C37 C 0.3132(5) 0.2936(5) 0.9071(4)
H33 H 0.2827 0.2427 0.9228
H34 H 0.2571 0.3339 0.9020
C38 C 0.7085(5) 0.0013(4) 0.6642(4)
H35 H 0.7436 -0.0172 0.6131
H36 H 0.6652 -0.0427 0.6814
C39 C 0.6861(5) 0.0889(4) 0.4730(4)
H37 H 0.7031 0.1304 0.4305
H38 H 0.7483 0.0547 0.4887
C40 C 0.7942(6) 0.4123(5) 1.4139(5)
H39 H 0.8078 0.4572 1.3744
H40 H 0.7790 0.4341 1.4726
C41 C 0.6960(6) 0.3649(4) 1.3653(4)
H41 H 0.6753 0.3252 1.4084
H42 H 0.6366 0.4017 1.3484
C42 C 0.5944(6) 0.0392(4) 0.4250(5)
H43 H 0.5882 -0.0090 0.4618
H44 H 0.6099 0.0223 0.3643
C43 C 0.4881(7) 0.0836(5) 0.4113(5)
H45 H 0.4397 0.0560 0.4462
H46 H 0.4573 0.0820 0.3455
C44 C 0.8935(7) 0.3594(5) 1.4329(5)
H47 H 0.9492 0.3840 1.4037
H48 H 0.9181 0.3582 1.5000
O13 O 0.2249(3) 0.3039(3) 0.4288(2)
O14 O 0.2601(6) 0.1224(8) 1.1673(7)
O15 O 0.7756(7) 0.5243(7) 0.6893(7)
O16 O 0.1200(5) 0.0999(7) 0.6964(6)
O17 O 0.9201(10) 0.4241(5) 0.7760(7)
O18 O 0.7292(7) -0.2147(7) 0.7727(8)
O19 O 0.9973(15) 0.0564(10) 0.5138(11)
O20 O 0.1335(9) 0.1352(8) 0.4370(12)
C45 C 0.6250(5) 0.1679(4) 0.9184(4)
C46 C 0.7663(4) 0.2943(4) 0.9258(4)
C47 C 0.8377(4) 0.3639(4) 0.9303(4)
H49 H 0.8348 0.3865 0.8687
H50 H 0.9094 0.3471 0.9536
H51 H 0.8159 0.4039 0.9715
N25 N 0.5487(6) 0.0975(5) 0.9172(5)
H52 H 0.5099 0.0831 0.8656
H53 H 0.5441 0.0719 0.9682
C48 C 0.6889(5) 0.1889(4) 1.0008(4)
H54 H 0.6836 0.1600 1.0551
C49 C 0.7054(6) 0.2753(5) 0.8418(5)
H55 H 0.7109 0.3049 0.7880
C50 C 0.7591(5) 0.2505(4) 1.0049(4)
H56 H 0.8024 0.2630 1.0612
C51 C 0.6351(6) 0.2105(5) 0.8389(5)
H57 H 0.5943 0.1959 0.7821
loop_
_geom_bond_atom_site_label_1
_geom_bond_atom_site_label_2
_geom_bond_site_symmetry_1
_geom_bond_site_symmetry_2
N1 C6 1_555 1_555
N2 C24 1_555 1_555
N3 C2 1_555 1_555
N4 C12 1_555 1_555
C1 N5 1_555 1_555
C2 N11 1_555 1_555
N5 C16 1_555 1_555
C3 N7 1_555 1_555
N6 C4 1_555 1_555
N7 C24 1_555 1_555
N8 C11 1_555 1_555
N9 C3 1_555 1_555
C4 O9 1_555 1_555
N10 C13 1_555 1_555
N11 C21 1_555 1_555
N12 C5 1_555 1_555
N13 C7 1_555 1_555
C5 H1 1_555 1_555
O1 C13 1_555 1_555
O2 C12 1_555 1_555
O3 C6 1_555 1_555
O4 C1 1_555 1_555
O5 C3 1_555 1_555
O6 C22 1_555 1_555
O7 C11 1_555 1_555
O8 C35 1_555 1_555
O10 C9 1_555 1_555
O11 C2 1_555 1_555
O12 C10 1_555 1_555
N14 C10 1_555 1_555
N15 C22 1_555 1_555
N16 C1 1_555 1_555
N17 C9 1_555 1_555
N18 C5 1_555 1_555
C6 N12 1_555 1_555
C7 H2 1_555 1_555
N19 C10 1_555 1_555
C8 N6 1_555 1_555
H3 C8 1_555 1_555
H4 C8 1_555 1_555
N20 C11 1_555 1_555
N21 C15 1_555 1_555
N22 C4 1_555 1_555
C9 N23 1_555 1_555
N23 C8 1_555 1_555
N24 C7 1_555 1_555
C12 N24 1_555 1_555
C13 N13 1_555 1_555
C14 N3 1_555 1_555
H5 C14 1_555 1_555
H6 C14 1_555 1_555
C15 N20 1_555 1_555
H7 C15 1_555 1_555
C16 N12 1_555 1_555
H8 C16 1_555 1_555
H9 C16 1_555 1_555
C17 N4 1_555 1_555
H10 C17 1_555 1_555
C18 H11 1_555 1_555
H12 C18 1_555 1_555
C19 N5 1_555 1_555
C20 N16 1_555 1_555
H13 C20 1_555 1_555
H14 C20 1_555 1_555
C21 N6 1_555 1_555
C22 N18 1_555 1_555
C23 N9 1_555 1_555
H15 C23 1_555 1_555
C24 H16 1_555 1_555
H17 C24 1_555 1_555
C25 N2 1_555 1_555
H18 C25 1_555 1_555
C26 N8 1_555 1_555
H19 C26 1_555 1_555
H20 C26 1_555 1_555
C27 N7 1_555 1_555
H21 C27 1_555 1_555
C28 N3 1_555 1_555
C29 N1 1_555 1_555
H22 C29 1_555 1_555
C30 C21 1_555 1_555
H23 C30 1_555 1_555
H24 C30 1_555 1_555
C31 N1 1_555 1_555
H25 C31 1_555 1_555
H26 C31 1_555 1_555
C32 N18 1_555 1_555
H27 C32 1_555 1_555
H28 C32 1_555 1_555
C33 N14 1_555 1_555
C34 N13 1_555 1_555
H29 C34 1_555 1_555
H30 C34 1_555 1_555
C35 N2 1_555 1_555
C36 N9 1_555 1_555
H31 C36 1_555 1_555
H32 C36 1_555 1_555
C37 N4 1_555 1_555
H33 C37 1_555 1_555
H34 C37 1_555 1_555
C38 N14 1_555 1_555
H35 C38 1_555 1_555
H36 C38 1_555 1_555
C39 C33 1_555 1_555
H37 C39 1_555 1_555
H38 C39 1_555 1_555
C40 H39 1_555 1_555
H40 C40 1_555 1_555
C41 C28 1_555 1_555
H41 C41 1_555 1_555
H42 C41 1_555 1_555
C42 C39 1_555 1_555
H43 C42 1_555 1_555
H44 C42 1_555 1_555
C43 C18 1_555 1_555
H45 C43 1_555 1_555
H46 C43 1_555 1_555
C44 C30 1_555 1_555
H47 C44 1_555 1_555
H48 C44 1_555 1_555
C45 N25 1_555 1_555
C46 C47 1_555 1_555
C47 H49 1_555 1_555
H50 C47 1_555 1_555
H51 C47 1_555 1_555
N25 H52 1_555 1_555
H53 N25 1_555 1_555
C48 C45 1_555 1_555
H54 C48 1_555 1_555
C49 C46 1_555 1_555
H55 C49 1_555 1_555
C50 C46 1_555 1_555
H56 C50 1_555 1_555
C51 C45 1_555 1_555
H57 C51 1_555 1_555
N8 C25 1_555 1_555
N10 C17 1_555 1_555
N10 C31 1_555 1_555
N11 C36 1_555 1_555
C5 C29 1_555 1_555
N15 C29 1_555 1_555
N15 C37 1_555 1_555
N16 C33 1_555 1_555
N17 C26 1_555 1_555
N17 C27 1_555 1_555
C7 C17 1_555 1_555
N19 C19 1_555 1_555
N19 C32 1_555 1_555
N20 C20 1_555 1_555
N21 C35 1_555 1_555
N21 C38 1_555 1_555
N22 C28 1_555 1_555
N22 C34 1_555 1_555
N23 C23 1_555 1_555
N24 C14 1_555 1_555
C15 C25 1_555 1_555
C18 C19 1_555 1_555
C19 C33 1_555 1_555
C21 C28 1_555 1_555
C23 C27 1_555 1_555
C40 C41 1_555 1_555
C40 C44 1_555 1_555
C42 C43 1_555 1_555
C48 C50 1_555 1_555
C49 C51 1_555 1_555

#END
