
#######################################################################
#
#                 Cambridge Crystallographic Data Centre
#                                CCDC 
#
#######################################################################
#
# If this CIF has been generated from an entry in the Cambridge 
# Structural Database, then it will include bibliographic, chemical, 
# crystal, experimental, refinement or atomic coordinate data resulting 
# from the CCDC's data processing and validation procedures.
#
#######################################################################

data_ZIQWII
_chemical_formula_moiety         'C12 H11 F6 N1 O1'
_chemical_name_systematic        
1,1,1,3,3,3-hexafluoro-2-(1,2,3,4-tetrahydroquinolin-6-yl)propan-2-ol
_symmetry_cell_setting           monoclinic
_symmetry_space_group_name_H-M   'P 21/c'
_symmetry_Int_Tables_number      14
_space_group_name_Hall           '-P 2ybc'
loop_
_symmetry_equiv_pos_site_id
_symmetry_equiv_pos_as_xyz
1 x,y,z
2 -x,1/2+y,1/2-z
3 -x,-y,-z
4 x,1/2-y,1/2+z
_cell_length_a                   10.812(2)
_cell_length_b                   14.506(3)
_cell_length_c                   10.197(2)
_cell_angle_alpha                90
_cell_angle_beta                 115.15(3)
_cell_angle_gamma                90
_cell_volume                     1447.67
_exptl_crystal_colour            colorless
_exptl_crystal_description       block
_cell_formula_units_Z            4
loop_
_atom_site_label
_atom_site_type_symbol
_atom_site_fract_x
_atom_site_fract_y
_atom_site_fract_z
O1 O 0.40071(15) 0.16831(9) 0.21191(16)
H1 H 0.4680 0.1451 0.2770
N1 N 0.48413(17) -0.22476(10) -0.02012(18)
H2 H 0.5690 -0.2289 -0.0028
F1 F 0.05591(13) 0.10431(10) -0.0088(2)
F2 F 0.3685(2) 0.04623(13) 0.39400(17)
F3 F 0.16326(18) 0.01525(11) 0.24623(19)
F4 F 0.2176(2) 0.15138(11) 0.3319(2)
F5 F 0.15078(18) 0.23378(10) 0.0744(2)
F6 F 0.19815(15) 0.16230(10) -0.08216(16)
C1 C 0.3864(2) -0.29672(14) -0.0984(3)
H3 H 0.3611 -0.3308 -0.0316
H4 H 0.4279 -0.3394 -0.1411
C2 C 0.2626(3) -0.25501(17) -0.2139(3)
H5 H 0.1997 -0.3034 -0.2679
H6 H 0.2882 -0.2210 -0.2805
C3 C 0.1921(2) -0.19004(15) -0.1488(3)
H7 H 0.1235 -0.1541 -0.2255
H8 H 0.1463 -0.2261 -0.1024
C4 C 0.29373(17) -0.12558(12) -0.03874(19)
C5 C 0.25049(17) -0.04504(12) 0.0024(2)
H9 H 0.1581 -0.0301 -0.0411
C6 C 0.34070(17) 0.01397(11) 0.10625(19)
C7 C 0.47745(18) -0.01063(12) 0.1727(2)
H10 H 0.5394 0.0269 0.2445
C8 C 0.52258(18) -0.09034(12) 0.1331(2)
H11 H 0.6147 -0.1058 0.1790
C9 C 0.43260(17) -0.14805(11) 0.02573(18)
C10 C 0.29573(19) 0.10217(12) 0.1560(2)
C11 C 0.2600(3) 0.07847(15) 0.2821(3)
C12 C 0.1735(2) 0.15024(14) 0.0345(3)
loop_
_geom_bond_atom_site_label_1
_geom_bond_atom_site_label_2
_geom_bond_site_symmetry_1
_geom_bond_site_symmetry_2
O1 H1 1_555 1_555
N1 H2 1_555 1_555
F1 C12 1_555 1_555
F2 C11 1_555 1_555
F3 C11 1_555 1_555
F4 C11 1_555 1_555
F5 C12 1_555 1_555
F6 C12 1_555 1_555
C1 N1 1_555 1_555
H3 C1 1_555 1_555
H4 C1 1_555 1_555
C2 C1 1_555 1_555
H5 C2 1_555 1_555
H6 C2 1_555 1_555
C3 C2 1_555 1_555
H7 C3 1_555 1_555
H8 C3 1_555 1_555
C4 C3 1_555 1_555
C5 C4 1_555 1_555
H9 C5 1_555 1_555
C6 C5 1_555 1_555
C7 C6 1_555 1_555
H10 C7 1_555 1_555
C8 C7 1_555 1_555
H11 C8 1_555 1_555
C9 N1 1_555 1_555
C10 O1 1_555 1_555
C11 C10 1_555 1_555
C12 C10 1_555 1_555
C4 C9 1_555 1_555
C6 C10 1_555 1_555
C8 C9 1_555 1_555

#END
