
#######################################################################
#
#                 Cambridge Crystallographic Data Centre
#                                CCDC 
#
#######################################################################
#
# If this CIF has been generated from an entry in the Cambridge 
# Structural Database, then it will include bibliographic, chemical, 
# crystal, experimental, refinement or atomic coordinate data resulting 
# from the CCDC's data processing and validation procedures.
#
#######################################################################

data_ZITHAN
_chemical_formula_moiety         'C20 H15 N3'
_chemical_name_systematic        1-(Biphenyl-2-yl)-4-phenyl-1H-1,2,3-triazole
_symmetry_cell_setting           orthorhombic
_symmetry_space_group_name_H-M   'P 21 21 21'
_symmetry_Int_Tables_number      19
_space_group_name_Hall           'P 2ac 2ab'
loop_
_symmetry_equiv_pos_site_id
_symmetry_equiv_pos_as_xyz
1 x,y,z
2 1/2-x,-y,1/2+z
3 1/2+x,1/2-y,-z
4 -x,1/2+y,1/2-z
_cell_length_a                   7.9758(6)
_cell_length_b                   12.9027(13)
_cell_length_c                   15.1592(12)
_cell_angle_alpha                90
_cell_angle_beta                 90
_cell_angle_gamma                90
_cell_volume                     1560.02
_exptl_crystal_colour            colorless
_exptl_crystal_description       block
_cell_formula_units_Z            4
loop_
_atom_site_label
_atom_site_type_symbol
_atom_site_fract_x
_atom_site_fract_y
_atom_site_fract_z
N1 N 0.8094(2) 0.99697(13) 0.96238(11)
N2 N 0.9209(2) 1.00064(16) 0.89551(13)
N3 N 0.9504(3) 0.90440(15) 0.87149(12)
C1 C 0.5412(3) 1.0868(2) 0.83291(17)
H1 H 0.5125 1.0305 0.8681
C2 C 0.4883(4) 1.0912(3) 0.7457(2)
H2 H 0.4221 1.0381 0.7231
C3 C 0.5321(5) 1.1724(4) 0.69262(19)
H3 H 0.4962 1.1744 0.6343
C4 C 0.6288(5) 1.2508(3) 0.72555(18)
H4 H 0.6600 1.3059 0.6896
C5 C 0.6797(3) 1.2475(2) 0.81258(15)
H5 H 0.7446 1.3014 0.8348
C6 C 0.6371(3) 1.16669(18) 0.86715(14)
C7 C 0.6816(2) 1.17020(16) 0.96242(13)
C8 C 0.6404(3) 1.25745(19) 1.01171(15)
H6 H 0.5912 1.3137 0.9834
C9 C 0.6699(3) 1.2634(2) 1.10092(15)
H7 H 0.6407 1.3229 1.1319
C10 C 0.7426(3) 1.18141(19) 1.14416(15)
H8 H 0.7613 1.1846 1.2047
C11 C 0.7877(3) 1.09435(18) 1.09717(15)
H9 H 0.8387 1.0389 1.1258
C12 C 0.7573(3) 1.08933(17) 1.00791(14)
C13 C 0.7688(3) 0.89818(17) 0.98067(14)
H10 H 0.6948 0.8749 1.0237
C14 C 0.8585(3) 0.83924(16) 0.92308(12)
C15 C 0.8675(3) 0.72623(17) 0.91428(13)
C16 C 0.7953(3) 0.66210(18) 0.97755(16)
H11 H 0.7399 0.6912 1.0255
C17 C 0.8050(3) 0.55605(19) 0.9699(2)
H12 H 0.7560 0.5139 1.0125
C18 C 0.8873(3) 0.5123(2) 0.8994(2)
H13 H 0.8948 0.4406 0.8946
C19 C 0.9584(4) 0.5743(2) 0.83600(19)
H14 H 1.0130 0.5446 0.7881
C20 C 0.9488(3) 0.6811(2) 0.84328(15)
H15 H 0.9974 0.7228 0.8002
loop_
_geom_bond_atom_site_label_1
_geom_bond_atom_site_label_2
_geom_bond_site_symmetry_1
_geom_bond_site_symmetry_2
N1 N2 1_555 1_555
N2 N3 1_555 1_555
N3 C14 1_555 1_555
C1 H1 1_555 1_555
C2 C1 1_555 1_555
H2 C2 1_555 1_555
C3 C2 1_555 1_555
H3 C3 1_555 1_555
C4 C3 1_555 1_555
H4 C4 1_555 1_555
C5 C4 1_555 1_555
H5 C5 1_555 1_555
C6 C1 1_555 1_555
C7 C6 1_555 1_555
C8 C7 1_555 1_555
H6 C8 1_555 1_555
C9 C8 1_555 1_555
H7 C9 1_555 1_555
C10 C9 1_555 1_555
H8 C10 1_555 1_555
C11 C10 1_555 1_555
H9 C11 1_555 1_555
C12 N1 1_555 1_555
C13 N1 1_555 1_555
H10 C13 1_555 1_555
C14 C13 1_555 1_555
C15 C14 1_555 1_555
C16 C15 1_555 1_555
H11 C16 1_555 1_555
C17 C16 1_555 1_555
H12 C17 1_555 1_555
C18 C17 1_555 1_555
H13 C18 1_555 1_555
C19 C18 1_555 1_555
H14 C19 1_555 1_555
C20 C15 1_555 1_555
H15 C20 1_555 1_555
C5 C6 1_555 1_555
C7 C12 1_555 1_555
C11 C12 1_555 1_555
C19 C20 1_555 1_555

#END
