
#######################################################################
#
#                 Cambridge Crystallographic Data Centre
#                                CCDC 
#
#######################################################################
#
# If this CIF has been generated from an entry in the Cambridge 
# Structural Database, then it will include bibliographic, chemical, 
# crystal, experimental, refinement or atomic coordinate data resulting 
# from the CCDC's data processing and validation procedures.
#
#######################################################################

data_ZITMIA
_chemical_formula_moiety         'C18 H18 F3 N1 O2 S1'
_chemical_name_systematic        
2-((4-Methylphenyl)sulfonyl)-4-(2,2,2-trifluoroethyl)-1,2,3,4-tetrahydroisoquinoline
_symmetry_cell_setting           monoclinic
_symmetry_space_group_name_H-M   'P 21/c'
_symmetry_Int_Tables_number      14
_space_group_name_Hall           '-P 2ybc'
loop_
_symmetry_equiv_pos_site_id
_symmetry_equiv_pos_as_xyz
1 x,y,z
2 -x,1/2+y,1/2-z
3 -x,-y,-z
4 x,1/2-y,1/2+z
_cell_length_a                   11.753(2)
_cell_length_b                   8.5498(17)
_cell_length_c                   17.595(4)
_cell_angle_alpha                90
_cell_angle_beta                 100.578(5)
_cell_angle_gamma                90
_cell_volume                     1738
_exptl_crystal_colour            colorless
_exptl_crystal_description       prismatic
_cell_formula_units_Z            4
loop_
_atom_site_label
_atom_site_type_symbol
_atom_site_fract_x
_atom_site_fract_y
_atom_site_fract_z
S1 S 0.72103(9) 0.18565(12) 0.07923(6)
N1 N 0.8323(3) 0.1663(3) 0.15075(18)
O1 O 0.6603(3) 0.3220(3) 0.0965(2)
O2 O 0.7671(3) 0.1780(4) 0.01058(18)
C1 C 1.0145(3) 0.1078(4) 0.2758(2)
C2 C 1.1046(3) 0.0817(4) 0.3387(2)
H1 H 1.1765 0.0494 0.3298
C3 C 1.0884(4) 0.1031(5) 0.4129(3)
H2 H 1.1486 0.0831 0.4540
C4 C 0.9839(4) 0.1540(5) 0.4270(2)
H3 H 0.9738 0.1709 0.4775
C5 C 0.8935(4) 0.1801(4) 0.3664(2)
H4 H 0.8226 0.2145 0.3764
C6 C 0.9075(3) 0.1557(4) 0.2909(2)
C7 C 0.8038(3) 0.1773(4) 0.2282(2)
H5 H 0.7466 0.0982 0.2335
H6 H 0.7698 0.2789 0.2341
C8 C 0.9142(3) 0.0387(4) 0.1432(2)
H7 H 0.9233 0.0285 0.0897
H8 H 0.8852 -0.0596 0.1595
C9 C 1.0303(3) 0.0780(4) 0.1940(2)
H9 H 1.0788 -0.0155 0.1953
C10 C 0.6337(3) 0.0209(4) 0.0840(2)
C11 C 0.6598(3) -0.1189(5) 0.0510(2)
H10 H 0.7174 -0.1225 0.0212
C12 C 0.5993(4) -0.2525(5) 0.0629(2)
H11 H 0.6168 -0.3458 0.0404
C13 C 0.5149(3) -0.2518(5) 0.1065(2)
C14 C 0.4896(3) -0.1095(5) 0.1378(3)
H12 H 0.4314 -0.1057 0.1671
C15 C 0.5474(3) 0.0255(5) 0.1268(3)
H13 H 0.5282 0.1192 0.1482
C16 C 0.4497(4) -0.3989(6) 0.1190(3)
H14 H 0.4511 -0.4131 0.1733
H15 H 0.4856 -0.4871 0.0992
H16 H 0.3710 -0.3901 0.0924
C17 C 1.0837(13) 0.2049(17) 0.1466(6)
H17 H 1.0665 0.1764 0.0924
H18 H 1.0461 0.3041 0.1521
C18 C 1.2092(10) 0.2262(13) 0.1695(6)
F1 F 1.2728(9) 0.1076(14) 0.1901(5)
F2 F 1.2384(4) 0.2934(7) 0.2406(3)
F3 F 1.2567(13) 0.2979(16) 0.1131(12)
H19? H 1.0816 -0.0090 0.1930
F4? F 1.2364(12) 0.3359(15) 0.1195(12)
C19? C 1.0948(14) 0.2286(17) 0.1733(8)
H20? H 1.0396 0.2993 0.1432
H21? H 1.1299 0.2819 0.2205
C20? C 1.1841(12) 0.1870(16) 0.1292(8)
F5? F 1.2599(11) 0.0877(15) 0.1514(6)
F6? F 1.1388(8) 0.1003(10) 0.0677(5)
loop_
_geom_bond_atom_site_label_1
_geom_bond_atom_site_label_2
_geom_bond_site_symmetry_1
_geom_bond_site_symmetry_2
S1 N1 1_555 1_555
N1 C7 1_555 1_555
O1 S1 1_555 1_555
O2 S1 1_555 1_555
C1 C2 1_555 1_555
C2 H1 1_555 1_555
C3 C2 1_555 1_555
H2 C3 1_555 1_555
C4 C3 1_555 1_555
H3 C4 1_555 1_555
C5 C4 1_555 1_555
H4 C5 1_555 1_555
C6 C1 1_555 1_555
C7 C6 1_555 1_555
H5 C7 1_555 1_555
H6 C7 1_555 1_555
C8 N1 1_555 1_555
H7 C8 1_555 1_555
H8 C8 1_555 1_555
C9 C1 1_555 1_555
H9 C9 1_555 1_555
C10 S1 1_555 1_555
C11 C10 1_555 1_555
H10 C11 1_555 1_555
C12 C11 1_555 1_555
H11 C12 1_555 1_555
C13 C12 1_555 1_555
C14 C13 1_555 1_555
H12 C14 1_555 1_555
C15 C10 1_555 1_555
H13 C15 1_555 1_555
C16 C13 1_555 1_555
H14 C16 1_555 1_555
H15 C16 1_555 1_555
H16 C16 1_555 1_555
C17 C9 1_555 1_555
H17 C17 1_555 1_555
H18 C17 1_555 1_555
C18 C17 1_555 1_555
F1 C18 1_555 1_555
F2 C18 1_555 1_555
F3 C18 1_555 1_555
C5 C6 1_555 1_555
C8 C9 1_555 1_555
C14 C15 1_555 1_555

#END
