
#######################################################################
#
#                 Cambridge Crystallographic Data Centre
#                                CCDC 
#
#######################################################################
#
# If this CIF has been generated from an entry in the Cambridge 
# Structural Database, then it will include bibliographic, chemical, 
# crystal, experimental, refinement or atomic coordinate data resulting 
# from the CCDC's data processing and validation procedures.
#
#######################################################################

data_ZITPEZ
_chemical_formula_moiety         'C18 H19 N1 O3'
_chemical_name_systematic        
(4,5-Dihydroxy-2-phenylpiperidin-1-yl)(phenyl)methanone
_symmetry_cell_setting           monoclinic
_symmetry_space_group_name_H-M   'P 21/c'
_symmetry_Int_Tables_number      14
_space_group_name_Hall           '-P 2ybc'
loop_
_symmetry_equiv_pos_site_id
_symmetry_equiv_pos_as_xyz
1 x,y,z
2 -x,1/2+y,1/2-z
3 -x,-y,-z
4 x,1/2-y,1/2+z
_cell_length_a                   5.630(3)
_cell_length_b                   30.924(14)
_cell_length_c                   8.575(4)
_cell_angle_alpha                90
_cell_angle_beta                 95.585(6)
_cell_angle_gamma                90
_cell_volume                     1485.84
_exptl_crystal_colour            colorless
_exptl_crystal_description       plate
_cell_formula_units_Z            4
loop_
_atom_site_label
_atom_site_type_symbol
_atom_site_fract_x
_atom_site_fract_y
_atom_site_fract_z
O1 O 0.9843(4) 0.50476(7) 0.6799(2)
H1 H 1.0690 0.5140 0.7589
O2 O 0.8831(3) 0.42812(6) 0.5153(2)
H2 H 0.9826 0.4460 0.4868
O3 O 0.7036(4) 0.45359(7) 1.1150(2)
N1 N 0.7384(4) 0.41384(7) 0.8963(3)
C1 C 0.8094(5) 0.47594(9) 0.7284(3)
H3 H 0.6811 0.4927 0.7744
C2 C 0.7033(5) 0.45080(9) 0.5862(3)
H4 H 0.6236 0.4715 0.5083
C3 C 0.5183(5) 0.41912(9) 0.6354(3)
H5 H 0.4575 0.4018 0.5431
H6 H 0.3824 0.4357 0.6700
C4 C 0.6121(5) 0.38805(8) 0.7684(3)
H7 H 0.4686 0.3754 0.8114
C5 C 0.9208(5) 0.44386(9) 0.8479(3)
H8 H 1.0473 0.4273 0.8019
H9 H 0.9950 0.4596 0.9407
C6 C 0.7576(4) 0.35006(8) 0.7157(3)
C7 C 0.6653(5) 0.32587(9) 0.5869(3)
H10 H 0.5173 0.3339 0.5320
C8 C 0.7862(5) 0.29030(10) 0.5380(3)
H11 H 0.7206 0.2741 0.4500
C9 C 1.0016(5) 0.27812(10) 0.6160(3)
H12 H 1.0856 0.2539 0.5808
C10 C 1.0944(5) 0.30128(10) 0.7454(3)
H13 H 1.2418 0.2928 0.8002
C11 C 0.9724(5) 0.33691(9) 0.7955(3)
H14 H 1.0364 0.3525 0.8854
C12 C 0.6498(5) 0.42091(9) 1.0362(3)
C13 C 0.4942(5) 0.38728(9) 1.0990(3)
C14 C 0.5471(5) 0.34327(9) 1.0929(3)
H15 H 0.6772 0.3337 1.0391
C15 C 0.4108(5) 0.31353(9) 1.1650(3)
H16 H 0.4485 0.2836 1.1614
C16 C 0.2196(5) 0.32715(10) 1.2423(3)
H17 H 0.1252 0.3065 1.2902
C17 C 0.1655(5) 0.37040(10) 1.2502(3)
H18 H 0.0335 0.3796 1.3027
C18 C 0.3052(5) 0.40055(9) 1.1809(3)
H19 H 0.2714 0.4305 1.1894
loop_
_geom_bond_atom_site_label_1
_geom_bond_atom_site_label_2
_geom_bond_site_symmetry_1
_geom_bond_site_symmetry_2
O1 H1 1_555 1_555
O2 H2 1_555 1_555
O3 C12 1_555 1_555
N1 C4 1_555 1_555
C1 O1 1_555 1_555
H3 C1 1_555 1_555
C2 O2 1_555 1_555
H4 C2 1_555 1_555
C3 C2 1_555 1_555
H5 C3 1_555 1_555
H6 C3 1_555 1_555
C4 C3 1_555 1_555
H7 C4 1_555 1_555
C5 N1 1_555 1_555
H8 C5 1_555 1_555
H9 C5 1_555 1_555
C6 C4 1_555 1_555
C7 C6 1_555 1_555
H10 C7 1_555 1_555
C8 C7 1_555 1_555
H11 C8 1_555 1_555
C9 C8 1_555 1_555
H12 C9 1_555 1_555
C10 C9 1_555 1_555
H13 C10 1_555 1_555
C11 C6 1_555 1_555
H14 C11 1_555 1_555
C12 N1 1_555 1_555
C13 C12 1_555 1_555
C14 C13 1_555 1_555
H15 C14 1_555 1_555
C15 C14 1_555 1_555
H16 C15 1_555 1_555
C16 C15 1_555 1_555
H17 C16 1_555 1_555
C17 C16 1_555 1_555
H18 C17 1_555 1_555
C18 C13 1_555 1_555
H19 C18 1_555 1_555
C1 C2 1_555 1_555
C1 C5 1_555 1_555
C10 C11 1_555 1_555
C17 C18 1_555 1_555

#END
