
#######################################################################
#
#                 Cambridge Crystallographic Data Centre
#                                CCDC 
#
#######################################################################
#
# If this CIF has been generated from an entry in the Cambridge 
# Structural Database, then it will include bibliographic, chemical, 
# crystal, experimental, refinement or atomic coordinate data resulting 
# from the CCDC's data processing and validation procedures.
#
#######################################################################

data_ZIVMEW
_chemical_formula_moiety         'C18 H24 O3'
_chemical_name_systematic        
1\b-(4-Methoxybenzyl)-8\a-vinyl-7-oxabicyclo(4.3.0)nonan-6\b-ol
_symmetry_cell_setting           monoclinic
_symmetry_space_group_name_H-M   'P 21/a'
_symmetry_Int_Tables_number      14
_space_group_name_Hall           '-P 2yab'
loop_
_symmetry_equiv_pos_site_id
_symmetry_equiv_pos_as_xyz
1 x,y,z
2 1/2-x,1/2+y,-z
3 -x,-y,-z
4 1/2+x,1/2-y,z
_cell_length_a                   12.525(3)
_cell_length_b                   8.490(2)
_cell_length_c                   15.697(6)
_cell_angle_alpha                90
_cell_angle_beta                 104.19(3)
_cell_angle_gamma                90
_cell_volume                     1618.25
_exptl_crystal_colour            colorless
_cell_formula_units_Z            4
loop_
_atom_site_label
_atom_site_type_symbol
_atom_site_fract_x
_atom_site_fract_y
_atom_site_fract_z
O1 O 0.4614(2) 0.1336(2) 0.5758(1)
O2 O 0.0942(3) -0.1058(7) 0.9653(2)
O3 O 0.4151(2) -0.1294(3) 0.5573(1)
C1 C 0.3522(2) 0.1985(4) 0.5625(2)
C2 C 0.2965(2) 0.1067(4) 0.6243(2)
C3 C 0.3556(3) 0.3733(4) 0.5740(2)
C4 C 0.4461(4) 0.4581(5) 0.5899(4)
C5 C 0.4644(2) -0.0146(3) 0.6194(2)
C6 C 0.5838(2) -0.0547(4) 0.6601(2)
C7 C 0.6349(3) 0.0511(5) 0.7381(3)
C8 C 0.5647(3) 0.0527(5) 0.8047(3)
C9 C 0.4510(2) 0.1135(5) 0.7597(2)
C10 C 0.3901(2) 0.0110(3) 0.6834(2)
C11 C 0.3517(2) -0.1476(3) 0.7141(2)
C12 C 0.2870(2) -0.1356(4) 0.7840(2)
C13 C 0.1850(2) -0.0626(5) 0.7658(2)
C14 C 0.1226(3) -0.0545(6) 0.8278(3)
C15 C 0.1629(3) -0.1202(6) 0.9098(2)
C16 C 0.2637(3) -0.1939(5) 0.9294(3)
C17 C 0.3260(3) -0.1981(5) 0.8669(3)
C18 C 0.1220(5) -0.181(1) 1.0447(3)
H1 H 0.443(3) -0.143(5) 0.511(2)
H2 H 0.312(4) 0.180(6) 0.503(3)
H3 H 0.151(3) -0.019(5) 0.715(3)
H4 H 0.050(4) 0.004(7) 0.814(4)
H5 H 0.294(5) -0.232(7) 0.985(4)
H6 H 0.398(5) -0.249(7) 0.887(4)
H7 H 0.278(4) 0.426(6) 0.557(3)
H8 H 0.440(7) 0.57(1) 0.579(6)
H9 H 0.534(7) 0.40(1) 0.602(6)
H10 H 0.625(3) -0.051(5) 0.612(2)
H11 H 0.585(3) -0.148(4) 0.671(2)
H12 H 0.689(3) 0.022(7) 0.755(4)
H13 H 0.644(5) 0.17(1) 0.712(5)
H14 H 0.561(4) -0.062(7) 0.834(4)
H15 H 0.600(6) 0.12(1) 0.846(5)
H16 H 0.403(4) 0.126(6) 0.803(3)
H17 H 0.460(5) 0.235(8) 0.733(4)
H18 H 0.424(4) -0.211(7) 0.746(3)
H19 H 0.310(3) -0.209(5) 0.662(3)
H20 H 0.263(4) 0.174(6) 0.662(3)
H21 H 0.239(4) 0.047(6) 0.593(3)
H22 H 0.080(6) -0.167(9) 1.087(5)
H23 H 0.154(7) -0.28(1) 1.046(6)
H24 H 0.179(9) -0.14(1) 1.076(7)
loop_
_geom_bond_atom_site_label_1
_geom_bond_atom_site_label_2
_geom_bond_site_symmetry_1
_geom_bond_site_symmetry_2
O1 C1 1_555 1_555
O2 C15 1_555 1_555
O3 C5 1_555 1_555
C1 C2 1_555 1_555
C2 C10 1_555 1_555
C3 C1 1_555 1_555
C4 C3 1_555 1_555
C5 O1 1_555 1_555
C6 C5 1_555 1_555
C7 C6 1_555 1_555
C8 C7 1_555 1_555
C9 C8 1_555 1_555
C10 C5 1_555 1_555
C11 C10 1_555 1_555
C12 C11 1_555 1_555
C13 C12 1_555 1_555
C14 C13 1_555 1_555
C15 C14 1_555 1_555
C16 C15 1_555 1_555
C17 C12 1_555 1_555
C18 O2 1_555 1_555
H1 O3 1_555 1_555
H2 C1 1_555 1_555
H3 C13 1_555 1_555
H4 C14 1_555 1_555
H5 C16 1_555 1_555
H6 C17 1_555 1_555
H7 C3 1_555 1_555
H8 C4 1_555 1_555
H9 C4 1_555 1_555
H10 C6 1_555 1_555
H11 C6 1_555 1_555
H12 C7 1_555 1_555
H13 C7 1_555 1_555
H14 C8 1_555 1_555
H15 C8 1_555 1_555
H16 C9 1_555 1_555
H17 C9 1_555 1_555
H18 C11 1_555 1_555
H19 C11 1_555 1_555
H20 C2 1_555 1_555
H21 C2 1_555 1_555
H22 C18 1_555 1_555
H23 C18 1_555 1_555
H24 C18 1_555 1_555
C9 C10 1_555 1_555
C16 C17 1_555 1_555

#END
