
#######################################################################
#
#                 Cambridge Crystallographic Data Centre
#                                CCDC 
#
#######################################################################
#
# If this CIF has been generated from an entry in the Cambridge 
# Structural Database, then it will include bibliographic, chemical, 
# crystal, experimental, refinement or atomic coordinate data resulting 
# from the CCDC's data processing and validation procedures.
#
#######################################################################

data_ZIVREB
_chemical_formula_moiety         '0.5(C24 H28 N2 O8),0.5(C24 H28 N2 O8)'
_chemical_name_systematic        
"N,N'-bis(trans-2-Phenyl-5-hydroxymethyl-1,3-dioxan-5-yl)ethanediamide N,N'-bis(cis-2-phenyl-5-hydroxymethyl-1,3-dioxan-5-yl)ethanediamide"
_symmetry_cell_setting           monoclinic
_symmetry_space_group_name_H-M   'P 21/c'
_symmetry_Int_Tables_number      14
_space_group_name_Hall           '-P 2ybc'
loop_
_symmetry_equiv_pos_site_id
_symmetry_equiv_pos_as_xyz
1 x,y,z
2 -x,1/2+y,1/2-z
3 -x,-y,-z
4 x,1/2-y,1/2+z
_cell_length_a                   10.3023(9)
_cell_length_b                   6.6712(7)
_cell_length_c                   33.0305(4)
_cell_angle_alpha                90
_cell_angle_beta                 95.489(8)
_cell_angle_gamma                90
_cell_volume                     2259.73
_exptl_crystal_colour            colorless
_cell_formula_units_Z            4
loop_
_atom_site_label
_atom_site_type_symbol
_atom_site_fract_x
_atom_site_fract_y
_atom_site_fract_z
O1 O 0.8476(2) 0.9715(3) 0.12113(5)
C1 C 0.9652(2) 0.9723(4) 0.14655(7)
O2 O 1.0734(2) 0.9485(3) 0.12368(5)
C2 C 1.0690(2) 0.7602(4) 0.10258(7)
C3 C 0.9421(2) 0.7399(4) 0.07522(7)
C4 C 0.8301(2) 0.7830(4) 0.10050(7)
C5 C 0.9790(3) 1.1662(4) 0.16993(7)
C6 C 1.1010(3) 1.2244(5) 0.18718(8)
C7 C 1.1142(4) 1.3922(5) 0.21163(9)
C8 C 1.0068(4) 1.5050(5) 0.21886(9)
C9 C 0.8859(4) 1.4492(5) 0.20128(9)
C10 C 0.8714(3) 1.2803(4) 0.17691(8)
N1 N 0.9358(2) 0.8918(3) 0.04281(6)
C11 C 1.0180(3) 0.9126(4) 0.01465(7)
O3 O 1.1158(2) 0.8097(3) 0.01130(5)
C12 C 0.9290(3) 0.5296(4) 0.05754(8)
O4 O 0.8075(2) 0.5130(3) 0.03392(6)
H1 H 0.9641 0.8611 0.16589
H2 H 1.0760 0.6514 0.12216
H3 H 1.1422 0.7510 0.08628
H4 H 0.7490 0.7851 0.08299
H5 H 0.8245 0.6768 0.12033
H6 H 1.1743 1.1502 0.18225
H7 H 1.1964 1.4294 0.22334
H8 H 1.0160 1.6177 0.23546
H9 H 0.8132 1.5257 0.20579
H10 H 0.7891 1.2436 0.16521
H11 H 0.8722 0.9757 0.04209
H12 H 0.9994 0.5039 0.04071
H13 H 0.9343 0.4317 0.07933
H14 H 0.8090 0.4162 0.0187
C11B C 0.9820(3) 1.0874(4) -0.01465(7)
N1B N 1.0642(2) 1.1082(3) -0.04281(6)
O3B O 0.8842(2) 1.1903(3) -0.01130(5)
C3B C 1.0579(2) 1.2601(4) -0.07522(7)
H11B H 1.1278 1.0243 -0.04209
C2B C 0.9310(2) 1.2398(4) -0.10258(7)
C4B C 1.1699(2) 1.2170(4) -0.10050(7)
C12B C 1.0710(3) 1.4704(4) -0.05754(8)
O2B O 0.9266(2) 1.0515(3) -0.12368(5)
H2B H 0.9240 1.3486 -0.12216
H3B H 0.8578 1.2490 -0.08628
O1B O 1.1524(2) 1.0285(3) -0.12113(5)
H4B H 1.2510 1.2149 -0.08299
H5B H 1.1755 1.3232 -0.12033
O4B O 1.1925(2) 1.4870(3) -0.03392(6)
H12B H 1.0006 1.4961 -0.04071
H13B H 1.0657 1.5683 -0.07933
C1B C 1.0348(2) 1.0277(4) -0.14655(7)
H14B H 1.1910 1.5838 -0.0187
C5B C 1.0210(3) 0.8338(4) -0.16993(7)
H1B H 1.0359 1.1389 -0.16589
C6B C 0.8990(3) 0.7756(5) -0.18718(8)
C10B C 1.1286(3) 0.7197(4) -0.17691(8)
C7B C 0.8858(4) 0.6078(5) -0.21163(9)
H6B H 0.8257 0.8498 -0.18225
C9B C 1.1141(4) 0.5508(5) -0.20128(9)
H10B H 1.2109 0.7564 -0.16521
C8B C 0.9932(4) 0.4950(5) -0.21886(9)
H7B H 0.8036 0.5706 -0.22334
H9B H 1.1868 0.4743 -0.20579
H8B H 0.9840 0.3823 -0.23546
O5 O 0.5398(2) 1.4309(3) 0.12943(5)
C13 C 0.4942(2) 1.6245(4) 0.11869(8)
O6 O 0.3710(2) 1.6150(3) 0.09568(5)
C14 C 0.3783(3) 1.5050(4) 0.05905(7)
C15 C 0.4238(2) 1.2921(4) 0.06871(7)
C16 C 0.5560(3) 1.3082(4) 0.09443(8)
C17 C 0.4772(2) 1.7405(4) 0.15699(7)
C18 C 0.3669(3) 1.7187(4) 0.17709(8)
C19 C 0.3504(3) 1.8298(4) 0.21130(8)
C20 C 0.4450(3) 1.9635(5) 0.22587(8)
C21 C 0.5555(3) 1.9853(5) 0.20612(9)
C22 C 0.5717(3) 1.8752(4) 0.17186(8)
N2 N 0.4356(2) 1.1929(3) 0.02938(6)
C23 C 0.5134(3) 1.0439(4) 0.02139(8)
O7 O 0.5981(3) 0.9726(4) 0.04477(6)
C24 C 0.3268(3) 1.1794(4) 0.09210(8)
O8 O 0.2004(2) 1.2038(3) 0.07151(6)
H15 H 0.5569 1.6931 0.10300
H16 H 0.4387 1.5703 0.04251
H17 H 0.2932 1.5020 0.04370
H18 H 0.5864 1.1759 0.10302
H19 H 0.6202 1.3678 0.07845
H20 H 0.3028 1.6278 0.16741
H21 H 0.2753 1.8144 0.22455
H22 H 0.4342 2.0388 0.24900
H23 H 0.6198 2.0753 0.21602
H24 H 0.6467 1.8915 0.15861
H25 H 0.3854 1.2377 0.00908
H26 H 0.3494 1.0382 0.09369
H27 H 0.3287 1.2316 0.11955
H28 H 0.1462 1.1525 0.0849
C23B C 0.4866(3) 0.9561(4) -0.02139(8)
N2B N 0.5644(2) 0.8071(3) -0.02938(6)
O7B O 0.4019(3) 1.0274(4) -0.04477(6)
C15B C 0.5762(2) 0.7079(4) -0.06871(7)
H25B H 0.6146 0.7623 -0.00908
C14B C 0.6217(3) 0.4950(4) -0.05905(7)
C16B C 0.4440(3) 0.6918(4) -0.09443(8)
C24B C 0.6732(3) 0.8206(4) -0.09210(8)
O6B O 0.6290(2) 0.3850(3) -0.09568(5)
H16B H 0.5613 0.4297 -0.04251
H17B H 0.7068 0.4980 -0.04370
O5B O 0.4602(2) 0.5691(3) -0.12943(5)
H18B H 0.4136 0.8241 -0.10302
H19B H 0.3798 0.6322 -0.07845
O8B O 0.7996(2) 0.7962(3) -0.07151(6)
H26B H 0.6506 0.9618 -0.09369
H27B H 0.6713 0.7684 -0.11955
C13B C 0.5058(2) 0.3755(4) -0.11869(8)
H28B H 0.8538 0.8475 -0.0849
C17B C 0.5228(2) 0.2595(4) -0.15699(7)
H15B H 0.4431 0.3069 -0.10300
C18B C 0.6331(3) 0.2813(4) -0.17709(8)
C22B C 0.4283(3) 0.1248(4) -0.17186(8)
C19B C 0.6496(3) 0.1702(4) -0.21130(8)
H20B H 0.6972 0.3722 -0.16741
C21B C 0.4445(3) 0.0147(5) -0.20612(9)
H24B H 0.3533 0.1085 -0.15861
C20B C 0.5550(3) 0.0365(5) -0.22587(8)
H21B H 0.7247 0.1856 -0.22455
H23B H 0.3802 -0.0753 -0.21602
H22B H 0.5658 -0.0388 -0.24900
loop_
_geom_bond_atom_site_label_1
_geom_bond_atom_site_label_2
_geom_bond_site_symmetry_1
_geom_bond_site_symmetry_2
O1 C1 1_555 1_555
C1 O2 1_555 1_555
O2 C2 1_555 1_555
C2 C3 1_555 1_555
C3 C4 1_555 1_555
C4 O1 1_555 1_555
C5 C1 1_555 1_555
C6 C5 1_555 1_555
C7 C6 1_555 1_555
C8 C7 1_555 1_555
C9 C8 1_555 1_555
C10 C5 1_555 1_555
N1 C3 1_555 1_555
C11 N1 1_555 1_555
O3 C11 1_555 1_555
C12 C3 1_555 1_555
O4 C12 1_555 1_555
O5 C13 1_555 1_555
C13 O6 1_555 1_555
O6 C14 1_555 1_555
C14 C15 1_555 1_555
C15 C16 1_555 1_555
C16 O5 1_555 1_555
C17 C13 1_555 1_555
C18 C17 1_555 1_555
C19 C18 1_555 1_555
C20 C19 1_555 1_555
C21 C20 1_555 1_555
C22 C17 1_555 1_555
N2 C15 1_555 1_555
C23 N2 1_555 1_555
O7 C23 1_555 1_555
C24 C15 1_555 1_555
O8 C24 1_555 1_555
H1 C1 1_555 1_555
H2 C2 1_555 1_555
H3 C2 1_555 1_555
H4 C4 1_555 1_555
H5 C4 1_555 1_555
H6 C6 1_555 1_555
H7 C7 1_555 1_555
H8 C8 1_555 1_555
H9 C9 1_555 1_555
H10 C10 1_555 1_555
H11 N1 1_555 1_555
H12 C12 1_555 1_555
H13 C12 1_555 1_555
H14 O4 1_555 1_555
H15 C13 1_555 1_555
H16 C14 1_555 1_555
H17 C14 1_555 1_555
H18 C16 1_555 1_555
H19 C16 1_555 1_555
H20 C18 1_555 1_555
H21 C19 1_555 1_555
H22 C20 1_555 1_555
H23 C21 1_555 1_555
H24 C22 1_555 1_555
H25 N2 1_555 1_555
H26 C24 1_555 1_555
H27 C24 1_555 1_555
H28 O8 1_555 1_555
C11B C11 1_555 1_555
N1B C11B 1_555 1_555
O3B C11B 1_555 1_555
C3B N1B 1_555 1_555
H11B N1B 1_555 1_555
C2B C3B 1_555 1_555
C4B C3B 1_555 1_555
C12B C3B 1_555 1_555
O2B C2B 1_555 1_555
H2B C2B 1_555 1_555
H3B C2B 1_555 1_555
O1B C4B 1_555 1_555
H4B C4B 1_555 1_555
H5B C4B 1_555 1_555
O4B C12B 1_555 1_555
H12B C12B 1_555 1_555
H13B C12B 1_555 1_555
C1B O2B 1_555 1_555
H14B O4B 1_555 1_555
C5B C1B 1_555 1_555
H1B C1B 1_555 1_555
C6B C5B 1_555 1_555
C10B C5B 1_555 1_555
C7B C6B 1_555 1_555
H6B C6B 1_555 1_555
C9B C10B 1_555 1_555
H10B C10B 1_555 1_555
C8B C7B 1_555 1_555
H7B C7B 1_555 1_555
H9B C9B 1_555 1_555
H8B C8B 1_555 1_555
C23B C23 1_555 1_555
N2B C23B 1_555 1_555
O7B C23B 1_555 1_555
C15B N2B 1_555 1_555
H25B N2B 1_555 1_555
C14B C15B 1_555 1_555
C16B C15B 1_555 1_555
C24B C15B 1_555 1_555
O6B C14B 1_555 1_555
H16B C14B 1_555 1_555
H17B C14B 1_555 1_555
O5B C16B 1_555 1_555
H18B C16B 1_555 1_555
H19B C16B 1_555 1_555
O8B C24B 1_555 1_555
H26B C24B 1_555 1_555
H27B C24B 1_555 1_555
C13B O6B 1_555 1_555
H28B O8B 1_555 1_555
C17B C13B 1_555 1_555
H15B C13B 1_555 1_555
C18B C17B 1_555 1_555
C22B C17B 1_555 1_555
C19B C18B 1_555 1_555
H20B C18B 1_555 1_555
C21B C22B 1_555 1_555
H24B C22B 1_555 1_555
C20B C19B 1_555 1_555
H21B C19B 1_555 1_555
H23B C21B 1_555 1_555
H22B C20B 1_555 1_555
C9 C10 1_555 1_555
C21 C22 1_555 1_555
O1B C1B 1_555 1_555
C9B C8B 1_555 1_555
O5B C13B 1_555 1_555
C21B C20B 1_555 1_555

#END
