
#######################################################################
#
#                 Cambridge Crystallographic Data Centre
#                                CCDC 
#
#######################################################################
#
# If this CIF has been generated from an entry in the Cambridge 
# Structural Database, then it will include bibliographic, chemical, 
# crystal, experimental, refinement or atomic coordinate data resulting 
# from the CCDC's data processing and validation procedures.
#
#######################################################################

data_ZIWMUP
_chemical_name_common            
3,4,6-tri-O-acetyl-1,2-dideoxy-2-C-diphenylphosphinyl-D-glucopyranose
_chemical_formula_moiety         'C24 H27 O8 P1'
_chemical_name_systematic        
'2-(acetoxymethyl)-5-(diphenylphosphoryl)tetrahydro-2H-pyran-3,4-diyl diacetate'
_symmetry_cell_setting           hexagonal
_symmetry_space_group_name_H-M   'P 61'
_symmetry_Int_Tables_number      169
_space_group_name_Hall           'P 61'
loop_
_symmetry_equiv_pos_site_id
_symmetry_equiv_pos_as_xyz
1 x,y,z
2 x-y,x,1/6+z
3 -y,x-y,1/3+z
4 -x,-y,1/2+z
5 -x+y,-x,2/3+z
6 y,-x+y,5/6+z
_cell_length_a                   11.64595(8)
_cell_length_b                   11.64595(8)
_cell_length_c                   31.3727(3)
_cell_angle_alpha                90
_cell_angle_beta                 90
_cell_angle_gamma                120
_cell_volume                     3684.96
_exptl_crystal_colour            colorless
_exptl_crystal_description       prismatic
_cell_formula_units_Z            6
loop_
_atom_site_label
_atom_site_type_symbol
_atom_site_fract_x
_atom_site_fract_y
_atom_site_fract_z
P1 P 0.07731(5) 0.18366(5) 0.119494(18)
C1 C 0.0427(3) -0.0625(3) 0.10858(10)
H1 H 0.1385 -0.0215 0.1093
H2 H 0.0106 -0.0788 0.1377
C2 C 0.0042(2) 0.03249(19) 0.08705(7)
H3 H 0.0407 0.0535 0.0581
C3 C -0.14693(19) -0.0340(2) 0.08528(7)
H4 H -0.1828 -0.0347 0.1136
C4 C -0.2079(2) -0.1753(2) 0.06777(7)
H5 H -0.1963 -0.1734 0.0368
C5 C -0.1518(2) -0.2548(2) 0.08886(9)
H6 H -0.1780 -0.2681 0.1189
C6 C -0.2024(3) -0.3881(2) 0.06823(10)
H7 H -0.1727 -0.4398 0.0842
H8 H -0.2986 -0.4360 0.0679
C7 C -0.2000(3) -0.4758(3) 0.00097(11)
C8 C -0.1327(4) -0.4476(4) -0.04064(13)
H9 H -0.1697 -0.5275 -0.0572
H10 H -0.0397 -0.4147 -0.0364
H11 H -0.1447 -0.3822 -0.0554
C9 C -0.4369(3) -0.2875(3) 0.04697(12)
C10 C -0.5736(3) -0.3700(4) 0.06462(17)
H12 H -0.5847 -0.3258 0.0888
H13 H -0.5864 -0.4547 0.0733
H14 H -0.6375 -0.3825 0.0431
C11 C -0.2780(3) 0.0625(3) 0.06492(11)
C12 C -0.2944(4) 0.1415(4) 0.02995(17)
H15 H -0.2703 0.2281 0.0404
H16 H -0.3851 0.0971 0.0207
H17 H -0.2382 0.1495 0.0064
C13 C 0.0633(2) 0.3138(2) 0.09281(7)
C14 C 0.0832(2) 0.3392(2) 0.04969(8)
H18 H 0.0974 0.2834 0.0320
C15 C 0.0818(3) 0.4490(3) 0.03286(9)
H19 H 0.0947 0.4664 0.0038
C16 C 0.0615(3) 0.5313(3) 0.05878(12)
H20 H 0.0612 0.6048 0.0473
C17 C 0.0415(3) 0.5064(3) 0.10140(12)
H21 H 0.0275 0.5627 0.1189
C18 C 0.0422(3) 0.3982(3) 0.11867(10)
H22 H 0.0284 0.3815 0.1478
C19 C 0.2535(2) 0.2392(2) 0.12144(8)
C20 C 0.3156(3) 0.2692(4) 0.16040(10)
H23 H 0.2677 0.2605 0.1851
C21 C 0.4496(4) 0.3123(5) 0.16268(13)
H24 H 0.4919 0.3342 0.1890
C22 C 0.5205(3) 0.3231(4) 0.12710(13)
H25 H 0.6105 0.3518 0.1291
C23 C 0.4594(3) 0.2920(3) 0.08854(12)
H26 H 0.5078 0.2982 0.0642
C24 C 0.3258(2) 0.2510(3) 0.08513(9)
H27 H 0.2850 0.2316 0.0586
O1 O 0.01812(18) 0.15750(19) 0.16303(5)
O2 O -0.3446(3) 0.0209(4) 0.09576(11)
O3 O -0.17871(15) 0.04079(15) 0.05572(5)
O4 O -0.34692(15) -0.24592(16) 0.07851(5)
O5 O -0.01154(17) -0.18421(17) 0.08644(7)
O6 O -0.1524(2) -0.36816(17) 0.02531(7)
O7 O -0.2863(3) -0.5826(2) 0.01263(10)
O8 O -0.4095(3) -0.2597(4) 0.01091(10)
loop_
_geom_bond_atom_site_label_1
_geom_bond_atom_site_label_2
_geom_bond_site_symmetry_1
_geom_bond_site_symmetry_2
P1 C2 1_555 1_555
C1 H1 1_555 1_555
H2 C1 1_555 1_555
C2 C1 1_555 1_555
H3 C2 1_555 1_555
C3 C2 1_555 1_555
H4 C3 1_555 1_555
C4 C3 1_555 1_555
H5 C4 1_555 1_555
C5 C4 1_555 1_555
H6 C5 1_555 1_555
C6 C5 1_555 1_555
H7 C6 1_555 1_555
H8 C6 1_555 1_555
C7 C8 1_555 1_555
C8 H9 1_555 1_555
H10 C8 1_555 1_555
H11 C8 1_555 1_555
C9 C10 1_555 1_555
C10 H12 1_555 1_555
H13 C10 1_555 1_555
H14 C10 1_555 1_555
C11 C12 1_555 1_555
C12 H15 1_555 1_555
H16 C12 1_555 1_555
H17 C12 1_555 1_555
C13 P1 1_555 1_555
C14 C13 1_555 1_555
H18 C14 1_555 1_555
C15 C14 1_555 1_555
H19 C15 1_555 1_555
C16 C15 1_555 1_555
H20 C16 1_555 1_555
C17 C16 1_555 1_555
H21 C17 1_555 1_555
C18 C13 1_555 1_555
H22 C18 1_555 1_555
C19 P1 1_555 1_555
C20 C19 1_555 1_555
H23 C20 1_555 1_555
C21 C20 1_555 1_555
H24 C21 1_555 1_555
C22 C21 1_555 1_555
H25 C22 1_555 1_555
C23 C22 1_555 1_555
H26 C23 1_555 1_555
C24 C19 1_555 1_555
H27 C24 1_555 1_555
O1 P1 1_555 1_555
O2 C11 1_555 1_555
O3 C3 1_555 1_555
O4 C4 1_555 1_555
O5 C1 1_555 1_555
O6 C6 1_555 1_555
O7 C7 1_555 1_555
O8 C9 1_555 1_555
C5 O5 1_555 1_555
C7 O6 1_555 1_555
C9 O4 1_555 1_555
C11 O3 1_555 1_555
C17 C18 1_555 1_555
C23 C24 1_555 1_555

#END
