
#######################################################################
#
#                 Cambridge Crystallographic Data Centre
#                                CCDC 
#
#######################################################################
#
# If this CIF has been generated from an entry in the Cambridge 
# Structural Database, then it will include bibliographic, chemical, 
# crystal, experimental, refinement or atomic coordinate data resulting 
# from the CCDC's data processing and validation procedures.
#
#######################################################################

data_ZIWPED
_chemical_formula_moiety         'C20 H15 Br1 N2 O3'
_chemical_name_systematic        
1a-(2-bromobenzene-1-carbonyl)-7a-phenyl-1a,4,5,7a-tetrahydrooxireno[3,4]pyrrolo[1,2-a]pyrimidin-7(3H)-one
_symmetry_cell_setting           monoclinic
_symmetry_space_group_name_H-M   'C 2/c'
_symmetry_Int_Tables_number      15
_space_group_name_Hall           '-C 2yn'
loop_
_symmetry_equiv_pos_site_id
_symmetry_equiv_pos_as_xyz
1 x,y,z
2 -x,y,1/2-z
3 1/2+x,1/2+y,z
4 1/2-x,1/2+y,1/2-z
5 -x,-y,-z
6 x,-y,1/2+z
7 1/2-x,1/2-y,-z
8 1/2+x,1/2-y,1/2+z
_cell_length_a                   13.602(5)
_cell_length_b                   9.731(4)
_cell_length_c                   26.871(11)
_cell_angle_alpha                90
_cell_angle_beta                 98.909(5)
_cell_angle_gamma                90
_cell_volume                     3513.76
_exptl_crystal_colour            colorless
_exptl_crystal_description       block
_cell_formula_units_Z            8
loop_
_atom_site_label
_atom_site_type_symbol
_atom_site_fract_x
_atom_site_fract_y
_atom_site_fract_z
N1 N 0.32431(18) 1.0485(2) 0.69660(8)
N2 N 0.27781(16) 1.2106(2) 0.63027(8)
O1 O 0.23098(13) 0.8645(2) 0.62646(7)
O2 O 0.26036(17) 0.9043(2) 0.52938(8)
O3 O 0.37116(16) 0.8547(2) 0.74233(7)
Br1 Br 0.53705(2) 1.02847(4) 0.62916(2)
C1 C 0.38740(19) 0.7204(3) 0.63949(10)
C2 C 0.3515(2) 0.6347(3) 0.59931(11)
H1 H 0.2919 0.6551 0.5787
C3 C 0.4051(2) 0.5185(3) 0.59024(13)
H2 H 0.3813 0.4615 0.5633
C4 C 0.4930(3) 0.4868(3) 0.62067(14)
H3 H 0.5283 0.4086 0.6143
C5 C 0.5285(2) 0.5709(3) 0.66039(13)
H4 H 0.5881 0.5493 0.6809
C6 C 0.4766(2) 0.6876(3) 0.67028(11)
H5 H 0.5011 0.7438 0.6973
C7 C 0.33422(18) 0.8477(3) 0.64985(10)
C8 C 0.30308(19) 0.9647(3) 0.61442(10)
C9 C 0.3147(2) 0.9733(3) 0.55959(10)
C10 C 0.3861(2) 1.0731(3) 0.54226(10)
C11 C 0.3537(2) 1.1350(3) 0.49511(10)
H6 H 0.2915 1.1124 0.4775
C12 C 0.4122(3) 1.2280(3) 0.47472(12)
H7 H 0.3889 1.2700 0.4441
C13 C 0.5055(3) 1.2584(4) 0.50004(12)
H8 H 0.5453 1.3207 0.4861
C14 C 0.5408(2) 1.1987(3) 0.54544(12)
H9 H 0.6044 1.2189 0.5619
C15 C 0.48030(19) 1.1076(3) 0.56649(9)
C16 C 0.30027(18) 1.0910(3) 0.64624(10)
C17 C 0.2759(2) 1.3168(3) 0.66912(11)
H10 H 0.2087 1.3242 0.6768
H11 H 0.2932 1.4047 0.6558
C18 C 0.3465(3) 1.2875(3) 0.71735(12)
H12 H 0.4146 1.2915 0.7108
H13 H 0.3384 1.3571 0.7423
C19 C 0.3262(3) 1.1472(3) 0.73770(11)
H14 H 0.3779 1.1230 0.7654
H15 H 0.2628 1.1472 0.7500
C20 C 0.3476(2) 0.9121(3) 0.70224(11)
loop_
_geom_bond_atom_site_label_1
_geom_bond_atom_site_label_2
_geom_bond_site_symmetry_1
_geom_bond_site_symmetry_2
N1 C16 1_555 1_555
N2 C16 1_555 1_555
O1 C7 1_555 1_555
O2 C9 1_555 1_555
O3 C20 1_555 1_555
Br1 C15 1_555 1_555
C1 C2 1_555 1_555
C2 H1 1_555 1_555
C3 C2 1_555 1_555
H2 C3 1_555 1_555
C4 C3 1_555 1_555
H3 C4 1_555 1_555
C5 C4 1_555 1_555
H4 C5 1_555 1_555
C6 C1 1_555 1_555
H5 C6 1_555 1_555
C7 C1 1_555 1_555
C8 O1 1_555 1_555
C9 C8 1_555 1_555
C10 C9 1_555 1_555
C11 C10 1_555 1_555
H6 C11 1_555 1_555
C12 C11 1_555 1_555
H7 C12 1_555 1_555
C13 C12 1_555 1_555
H8 C13 1_555 1_555
C14 C13 1_555 1_555
H9 C14 1_555 1_555
C15 C10 1_555 1_555
C16 C8 1_555 1_555
C17 N2 1_555 1_555
H10 C17 1_555 1_555
H11 C17 1_555 1_555
C18 C17 1_555 1_555
H12 C18 1_555 1_555
H13 C18 1_555 1_555
C19 N1 1_555 1_555
H14 C19 1_555 1_555
H15 C19 1_555 1_555
C20 N1 1_555 1_555
C5 C6 1_555 1_555
C7 C8 1_555 1_555
C7 C20 1_555 1_555
C14 C15 1_555 1_555
C18 C19 1_555 1_555

#END
