
#######################################################################
#
#                 Cambridge Crystallographic Data Centre
#                                CCDC 
#
#######################################################################
#
# If this CIF has been generated from an entry in the Cambridge 
# Structural Database, then it will include bibliographic, chemical, 
# crystal, experimental, refinement or atomic coordinate data resulting 
# from the CCDC's data processing and validation procedures.
#
#######################################################################

data_ZIWQOL
_chemical_name_common            
"bis(bis(Tetrahydrofuran)-sodium) commo-1,1'-magnesium-bis(2,3-bis(trimethylsilyl)-2,3-dicarbaheptaborane(4))"
_chemical_formula_moiety         'C16 H44 B8 Mg1 Si4,2(C8 H16 Na1 O2)'
_chemical_name_systematic        
"bis(bis(Tetrahydrofuran)-sodium) commo-1,1'-magnesa-bis(2,3-bis(trimethylsilyl)-2,3-dicarbaheptaborane(4))"
_symmetry_cell_setting           monoclinic
_symmetry_space_group_name_H-M   'C 2/c'
_symmetry_Int_Tables_number      15
_space_group_name_Hall           '-C 2yn'
loop_
_symmetry_equiv_pos_site_id
_symmetry_equiv_pos_as_xyz
1 x,y,z
2 -x,y,1/2-z
3 1/2+x,1/2+y,z
4 1/2-x,1/2+y,1/2-z
5 -x,-y,-z
6 x,-y,1/2+z
7 1/2-x,1/2-y,-z
8 1/2+x,1/2-y,1/2+z
_cell_length_a                   21.997(6)
_cell_length_b                   13.417(4)
_cell_length_c                   17.386(5)
_cell_angle_alpha                90
_cell_angle_beta                 91.28(2)
_cell_angle_gamma                90
_cell_volume                     5129.91
_exptl_crystal_colour            colorless
_cell_formula_units_Z            4
loop_
_atom_site_label
_atom_site_type_symbol
_atom_site_fract_x
_atom_site_fract_y
_atom_site_fract_z
Mg1 Mg 0.0000 0.1000(5) 0.7500
Si1 Si -0.1773(2) 0.0553(5) 0.7053(3)
Si2 Si -0.1090(2) 0.3150(4) 0.6677(3)
C1 C -0.0984(6) 0.0910(12) 0.6820(8)
C2 C -0.0707(6) 0.1908(12) 0.6636(7)
B1 B -0.0080(8) 0.1795(12) 0.6253(9)
B2 B 0.0026(7) 0.0550(14) 0.6166(9)
B3 B -0.0554(8) 0.0052(13) 0.6542(10)
B4 B -0.0694(8) 0.1077(15) 0.5916(10)
C3 C -0.2214(9) 0.0306(19) 0.6133(13)
C4 C -0.1763(10) -0.0466(24) 0.7652(19)
C5 C -0.2238(9) 0.1472(17) 0.7586(13)
C6 C -0.1287(9) 0.3506(13) 0.7693(10)
C7 C -0.0555(8) 0.4133(14) 0.6391(12)
C8 C -0.1769(8) 0.3253(13) 0.6014(10)
H1 H 0.0182 0.2460 0.5962
H2 H 0.0431 0.0166 0.5867
H3 H -0.0630 -0.0831 0.6612
H4 H -0.1035 0.1257 0.5320
H5 H -0.2002 -0.0170 0.5826
H6 H -0.2611 0.0055 0.6245
H7 H -0.2253 0.0923 0.5857
H8 H -0.1532 -0.0277 0.8104
H9 H -0.2162 -0.0673 0.7797
H10 H -0.1563 -0.1006 0.7400
H11 H -0.2036 0.1616 0.8069
H12 H -0.2276 0.2073 0.7289
H13 H -0.2635 0.1205 0.7678
H14 H -0.0925 0.3460 0.8010
H15 H -0.1442 0.4174 0.7709
H16 H -0.1587 0.3053 0.7880
H17 H -0.0195 0.4114 0.6713
H18 H -0.0446 0.4045 0.5864
H19 H -0.0754 0.4765 0.6449
H20 H -0.1661 0.3080 0.5499
H21 H -0.2073 0.2799 0.6191
H22 H -0.1928 0.3920 0.6020
C1A C 0.0984(6) 0.0910(12) 0.8180(8)
Si1A Si 0.1773(2) 0.0553(5) 0.7947(3)
C3A C 0.2214(9) 0.0306(19) 0.8867(13)
H5A H 0.2002 -0.0170 0.9174
H6A H 0.2611 0.0055 0.8755
H7A H 0.2253 0.0923 0.9143
C4A C 0.1763(10) -0.0466(24) 0.7348(19)
H8A H 0.1532 -0.0277 0.6896
H9A H 0.2162 -0.0673 0.7203
H10A H 0.1563 -0.1006 0.7600
C5A C 0.2238(9) 0.1472(17) 0.7414(13)
H11A H 0.2036 0.1616 0.6931
H12A H 0.2276 0.2073 0.7711
H13A H 0.2635 0.1205 0.7322
C2A C 0.0707(6) 0.1908(12) 0.8364(7)
B1A B 0.0080(8) 0.1795(12) 0.8747(9)
Si2A Si 0.1090(2) 0.3150(4) 0.8323(3)
C6A C 0.1287(9) 0.3506(13) 0.7307(10)
H14A H 0.0925 0.3460 0.6990
H15A H 0.1442 0.4174 0.7291
H16A H 0.1587 0.3053 0.7120
C7A C 0.0555(8) 0.4133(14) 0.8609(12)
H17A H 0.0195 0.4114 0.8287
H18A H 0.0446 0.4045 0.9136
H19A H 0.0754 0.4765 0.8551
C8A C 0.1769(8) 0.3253(13) 0.8986(10)
H20A H 0.1661 0.3080 0.9501
H21A H 0.2073 0.2799 0.8809
H22A H 0.1928 0.3920 0.8980
B4A B 0.0694(8) 0.1077(15) 0.9084(10)
B3A B 0.0554(8) 0.0052(13) 0.8458(10)
B2A B -0.0026(7) 0.0550(14) 0.8834(9)
H4A H 0.1035 0.1257 0.9680
H3A H 0.0630 -0.0831 0.8388
H2A H -0.0431 0.0166 0.9133
H1A H -0.0182 0.2460 0.9038
Na1 Na 0.0235(3) 0.1280(4) 0.4645(3)
O1 O 0.0982(9) 0.2408(17) 0.4660(12)
C9 C 0.1124(21) 0.3129(35) 0.4103(23)
C10 C 0.1646(13) 0.3627(20) 0.4473(16)
C11 C 0.1640(13) 0.3343(16) 0.5287(16)
C12 C 0.1473(23) 0.2292(18) 0.5187(27)
O2 O -0.0311(6) 0.2441(9) 0.3935(8)
C13 C -0.0812(11) 0.2004(21) 0.3544(21)
C14 C -0.1162(20) 0.2837(17) 0.3855(35)
C15 C -0.0937(12) 0.3852(21) 0.3732(15)
C16 C -0.0474(13) 0.3380(15) 0.4230(14)
H23 H 0.0814 0.3526 0.3855
H24 H 0.1319 0.2711 0.3733
H25 H 0.1788 0.1888 0.4976
H26 H 0.1334 0.1998 0.5655
H27 H -0.1014 0.1546 0.3878
H28 H -0.0723 0.1666 0.3073
H29 H -0.1547 0.2762 0.4096
H30 H -0.1231 0.2917 0.3311
H31 H -0.0119 0.3772 0.4176
H32 H -0.0577 0.3365 0.4758
O3? O 0.1223(11) 0.2054(16) 0.4649(12)
C17? C 0.1451(20) 0.2706(21) 0.4088(12)
C18? C 0.1474(17) 0.2292(17) 0.5379(12)
C19? C -0.0393(20) 0.2429(23) 0.3129(10)
C20? C -0.0849(19) 0.3223(27) 0.3054(19)
H33? H 0.1826 0.2382 0.3968
H34? H 0.1208 0.2782 0.3625
H35? H 0.1181 0.2226 0.5777
H36? H 0.1814 0.1864 0.5489
H37? H -0.0592 0.1818 0.2984
H38? H -0.0029 0.2500 0.2840
H39? H -0.0686 0.3655 0.2670
H40? H -0.1241 0.2996 0.2874
loop_
_geom_bond_atom_site_label_1
_geom_bond_atom_site_label_2
_geom_bond_site_symmetry_1
_geom_bond_site_symmetry_2
Mg1 C1 1_555 1_555
Si1 C1 1_555 1_555
Si2 C2 1_555 1_555
C1 C2 1_555 1_555
C2 Mg1 1_555 1_555
B1 Mg1 1_555 1_555
B2 Mg1 1_555 1_555
B3 Mg1 1_555 1_555
B4 C1 1_555 1_555
C3 Si1 1_555 1_555
C4 Si1 1_555 1_555
C5 Si1 1_555 1_555
C6 Si2 1_555 1_555
C7 Si2 1_555 1_555
C8 Si2 1_555 1_555
H1 B1 1_555 1_555
H2 B2 1_555 1_555
H3 B3 1_555 1_555
H4 B4 1_555 1_555
H5 C3 1_555 1_555
H6 C3 1_555 1_555
H7 C3 1_555 1_555
H8 C4 1_555 1_555
H9 C4 1_555 1_555
H10 C4 1_555 1_555
H11 C5 1_555 1_555
H12 C5 1_555 1_555
H13 C5 1_555 1_555
H14 C6 1_555 1_555
H15 C6 1_555 1_555
H16 C6 1_555 1_555
H17 C7 1_555 1_555
H18 C7 1_555 1_555
H19 C7 1_555 1_555
H20 C8 1_555 1_555
H21 C8 1_555 1_555
H22 C8 1_555 1_555
Na1 O1 1_555 1_555
O1 C9 1_555 1_555
C9 C10 1_555 1_555
C10 C11 1_555 1_555
C11 C12 1_555 1_555
C12 O1 1_555 1_555
O2 Na1 1_555 1_555
C13 O2 1_555 1_555
C14 C13 1_555 1_555
C15 C14 1_555 1_555
C16 O2 1_555 1_555
H23 C9 1_555 1_555
H24 C9 1_555 1_555
H25 C12 1_555 1_555
H26 C12 1_555 1_555
H27 C13 1_555 1_555
H28 C13 1_555 1_555
H29 C14 1_555 1_555
H30 C14 1_555 1_555
H31 C16 1_555 1_555
H32 C16 1_555 1_555
C1A Mg1 1_555 1_555
Si1A C1A 1_555 1_555
C3A Si1A 1_555 1_555
H5A C3A 1_555 1_555
H6A C3A 1_555 1_555
H7A C3A 1_555 1_555
C4A Si1A 1_555 1_555
H8A C4A 1_555 1_555
H9A C4A 1_555 1_555
H10A C4A 1_555 1_555
C5A Si1A 1_555 1_555
H11A C5A 1_555 1_555
H12A C5A 1_555 1_555
H13A C5A 1_555 1_555
C2A Mg1 1_555 1_555
B1A Mg1 1_555 1_555
Si2A C2A 1_555 1_555
C6A Si2A 1_555 1_555
H14A C6A 1_555 1_555
H15A C6A 1_555 1_555
H16A C6A 1_555 1_555
C7A Si2A 1_555 1_555
H17A C7A 1_555 1_555
H18A C7A 1_555 1_555
H19A C7A 1_555 1_555
C8A Si2A 1_555 1_555
H20A C8A 1_555 1_555
H21A C8A 1_555 1_555
H22A C8A 1_555 1_555
B4A C1A 1_555 1_555
B3A Mg1 1_555 1_555
B2A Mg1 1_555 1_555
H4A B4A 1_555 1_555
H3A B3A 1_555 1_555
H2A B2A 1_555 1_555
H1A B1A 1_555 1_555
C1 B3 1_555 1_555
C2 B1 1_555 1_555
C2 B4 1_555 1_555
B1 B2 1_555 1_555
B1 B4 1_555 1_555
B2 B3 1_555 1_555
B2 B4 1_555 1_555
B3 B4 1_555 1_555
C15 C16 1_555 1_555
C1A C2A 1_555 1_555
C1A B3A 1_555 1_555
C2A B1A 1_555 1_555
C2A B4A 1_555 1_555
B1A B4A 1_555 1_555
B1A B2A 1_555 1_555
B4A B3A 1_555 1_555
B4A B2A 1_555 1_555
B3A B2A 1_555 1_555

#END
