
#######################################################################
#
#                 Cambridge Crystallographic Data Centre
#                                CCDC 
#
#######################################################################
#
# If this CIF has been generated from an entry in the Cambridge 
# Structural Database, then it will include bibliographic, chemical, 
# crystal, experimental, refinement or atomic coordinate data resulting 
# from the CCDC's data processing and validation procedures.
#
#######################################################################

data_ZIYLAX
_chemical_compound_source        'leaves of Rhododendron micranthum Turcz.'
_chemical_name_common            'micranthanoside A methanol solvate'
_chemical_formula_moiety         'C26 H42 O8,C1 H4 O1'
_chemical_name_systematic        
'2-((5,16-dihydroxygrayanotox-10-en-3-yl)oxy)-6-(hydroxymethyl)oxane-3,4,5-triol methanol solvate'
_chemical_properties_biological  'antinociceptive activity'
_symmetry_cell_setting           orthorhombic
_symmetry_space_group_name_H-M   'P 21 21 21'
_symmetry_Int_Tables_number      19
_space_group_name_Hall           'P 2ac 2ab'
loop_
_symmetry_equiv_pos_site_id
_symmetry_equiv_pos_as_xyz
1 x,y,z
2 1/2-x,-y,1/2+z
3 -x,1/2+y,1/2-z
4 1/2+x,1/2-y,-z
_cell_length_a                   6.9345(2)
_cell_length_b                   13.2666(4)
_cell_length_c                   28.7946(8)
_cell_angle_alpha                90
_cell_angle_beta                 90
_cell_angle_gamma                90
_cell_volume                     2649.02
_exptl_crystal_colour            colorless
_exptl_crystal_description       block
_chemical_melting_point          '133-134 deg.C'
_cell_formula_units_Z            4
loop_
_atom_site_label
_atom_site_type_symbol
_atom_site_fract_x
_atom_site_fract_y
_atom_site_fract_z
O1 O 1.0868(3) 0.88230(14) 0.05008(6)
H1 H 1.0231 0.8923 0.0257
C1 C 0.6806(3) 0.73903(17) 0.24249(9)
H2 H 0.5733 0.7390 0.2193
C2 C 0.3134(3) 0.74874(18) 0.37829(8)
H3 H 0.3841 0.8019 0.3960
O2 O 0.8774(3) 0.85393(14) 0.28825(6)
C3 C 0.5987(4) 0.6936(2) 0.28759(9)
H4 H 0.4933 0.6457 0.2806
H5 H 0.7008 0.6576 0.3050
C4 C 0.1031(3) 0.74633(19) 0.39368(9)
H6 H 0.0320 0.6928 0.3762
O3 O 0.3259(2) 0.76864(13) 0.33128(6)
C5 C 0.5226(3) 0.78334(19) 0.31590(9)
H7 H 0.6069 0.7930 0.3437
C6 C 0.0993(3) 0.72319(19) 0.44540(8)
H8 H 0.1595 0.7819 0.4617
O4 O 0.3991(2) 0.65307(12) 0.38691(6)
C7 C 0.5379(3) 0.87730(19) 0.28469(8)
C8 C 0.2190(3) 0.62982(19) 0.45777(8)
H9 H 0.1513 0.5696 0.4447
O5 O 0.0120(3) 0.84075(14) 0.38712(6)
H10 H -0.0151 0.8482 0.3589
C9 C 0.7184(3) 0.85037(17) 0.25559(8)
C10 C 0.4192(3) 0.63494(18) 0.43546(8)
H11 H 0.4938 0.6915 0.4498
O6 O -0.0928(2) 0.71368(13) 0.46272(6)
H12 H -0.1476 0.6649 0.4496
C11 C 0.7629(4) 0.91928(18) 0.21413(9)
H13 H 0.9016 0.9367 0.2154
H14 H 0.6899 0.9827 0.2185
C12 C 0.5299(4) 0.5380(2) 0.44154(10)
H15 H 0.5276 0.5175 0.4746
H16 H 0.4686 0.4839 0.4230
O7 O 0.2339(3) 0.61608(14) 0.50656(6)
H17 H 0.2772 0.6689 0.5188
C13 C 0.7193(4) 0.87980(18) 0.16498(9)
H18 H 0.7156 0.9382 0.1436
H19 H 0.5887 0.8497 0.1652
O8 O 0.7239(2) 0.55173(13) 0.42677(7)
H20 H 0.7862 0.4983 0.4311
C14 C 0.8601(4) 0.80142(18) 0.14471(9)
C15 C 0.8430(4) 0.69322(18) 0.16645(9)
H21 H 0.7109 0.6690 0.1582
C16 C 0.8523(4) 0.69037(18) 0.21921(9)
C17 C 0.9841(4) 0.62041(19) 0.14169(9)
H22 H 1.0028 0.5606 0.1617
H23 H 0.9229 0.5970 0.1126
C18 C 1.1833(4) 0.6641(2) 0.12980(9)
H24 H 1.2649 0.6633 0.1580
H25 H 1.2457 0.6207 0.1062
C19 C 1.1712(4) 0.7722(2) 0.11119(9)
H26 H 1.3026 0.7992 0.1042
C20 C 1.0702(4) 0.83664(19) 0.14802(9)
H27 H 1.0819 0.9094 0.1408
H28 H 1.1239 0.8238 0.1793
C21 C 0.8331(4) 0.79090(19) 0.09117(8)
H29 H 0.7585 0.7293 0.0839
H30 H 0.7625 0.8499 0.0787
C22 C 1.0365(4) 0.78471(18) 0.06935(9)
C23 C 1.0597(4) 0.7066(2) 0.03115(9)
H31 H 0.9732 0.7230 0.0053
H32 H 1.0274 0.6398 0.0434
H33 H 1.1934 0.7067 0.0201
C24 C 0.5608(4) 0.97339(19) 0.31333(9)
H34 H 0.5690 1.0316 0.2925
H35 H 0.6788 0.9690 0.3319
H36 H 0.4494 0.9812 0.3339
C25 C 0.3590(4) 0.8881(2) 0.25423(9)
H37 H 0.2514 0.9133 0.2730
H38 H 0.3250 0.8223 0.2411
H39 H 0.3856 0.9357 0.2290
C26 C 0.9960(4) 0.6494(2) 0.24298(10)
H40 H 0.9935 0.6499 0.2760
H41 H 1.1014 0.6195 0.2270
H42 H 0.967(5) 0.823(3) 0.2774(11)
O9 O 1.0468(3) 0.44880(14) 0.53309(7)
H43 H 1.1271 0.4947 0.5275
C27 C 0.8787(5) 0.4913(3) 0.55197(11)
H44 H 0.8929 0.4973 0.5857
H45 H 0.7681 0.4480 0.5449
H46 H 0.8579 0.5583 0.5385
loop_
_geom_bond_atom_site_label_1
_geom_bond_atom_site_label_2
_geom_bond_site_symmetry_1
_geom_bond_site_symmetry_2
O1 H1 1_555 1_555
C1 H2 1_555 1_555
C2 H3 1_555 1_555
O2 C9 1_555 1_555
C3 C1 1_555 1_555
H4 C3 1_555 1_555
H5 C3 1_555 1_555
C4 C2 1_555 1_555
H6 C4 1_555 1_555
O3 C2 1_555 1_555
C5 C3 1_555 1_555
H7 C5 1_555 1_555
C6 C4 1_555 1_555
H8 C6 1_555 1_555
O4 C2 1_555 1_555
C7 C5 1_555 1_555
C8 C6 1_555 1_555
H9 C8 1_555 1_555
O5 C4 1_555 1_555
H10 O5 1_555 1_555
C9 C1 1_555 1_555
C10 O4 1_555 1_555
H11 C10 1_555 1_555
O6 C6 1_555 1_555
H12 O6 1_555 1_555
C11 C9 1_555 1_555
H13 C11 1_555 1_555
H14 C11 1_555 1_555
C12 C10 1_555 1_555
H15 C12 1_555 1_555
H16 C12 1_555 1_555
O7 C8 1_555 1_555
H17 O7 1_555 1_555
C13 C11 1_555 1_555
H18 C13 1_555 1_555
H19 C13 1_555 1_555
O8 C12 1_555 1_555
H20 O8 1_555 1_555
C14 C13 1_555 1_555
C15 C14 1_555 1_555
H21 C15 1_555 1_555
C16 C1 1_555 1_555
C17 C15 1_555 1_555
H22 C17 1_555 1_555
H23 C17 1_555 1_555
C18 C17 1_555 1_555
H24 C18 1_555 1_555
H25 C18 1_555 1_555
C19 C18 1_555 1_555
H26 C19 1_555 1_555
C20 C14 1_555 1_555
H27 C20 1_555 1_555
H28 C20 1_555 1_555
C21 C14 1_555 1_555
H29 C21 1_555 1_555
H30 C21 1_555 1_555
C22 O1 1_555 1_555
C23 C22 1_555 1_555
H31 C23 1_555 1_555
H32 C23 1_555 1_555
H33 C23 1_555 1_555
C24 C7 1_555 1_555
H34 C24 1_555 1_555
H35 C24 1_555 1_555
H36 C24 1_555 1_555
C25 C7 1_555 1_555
H37 C25 1_555 1_555
H38 C25 1_555 1_555
H39 C25 1_555 1_555
C26 C16 1_555 1_555
H40 C26 1_555 1_555
H41 C26 1_555 1_555
H42 O2 1_555 1_555
O9 H43 1_555 1_555
C27 O9 1_555 1_555
H44 C27 1_555 1_555
H45 C27 1_555 1_555
H46 C27 1_555 1_555
O3 C5 1_555 1_555
C7 C9 1_555 1_555
C8 C10 1_555 1_555
C15 C16 1_555 1_555
C19 C20 1_555 1_555
C19 C22 1_555 1_555
C21 C22 1_555 1_555

#END
