
#######################################################################
#
#                 Cambridge Crystallographic Data Centre
#                                CCDC 
#
#######################################################################
#
# If this CIF has been generated from an entry in the Cambridge 
# Structural Database, then it will include bibliographic, chemical, 
# crystal, experimental, refinement or atomic coordinate data resulting 
# from the CCDC's data processing and validation procedures.
#
#######################################################################

data_ZIYSUX
_chemical_formula_moiety         'C14 H18 F3 N1 O8'
_chemical_name_systematic        
'6-methyl-3-((trifluoroacetyl)amino)tetrahydro-2H-pyran-2,4,5-triyl triacetate'
_symmetry_cell_setting           orthorhombic
_symmetry_space_group_name_H-M   'P 21 21 21'
_symmetry_Int_Tables_number      19
_space_group_name_Hall           'P 2ac 2ab'
loop_
_symmetry_equiv_pos_site_id
_symmetry_equiv_pos_as_xyz
1 x,y,z
2 1/2-x,-y,1/2+z
3 -x,1/2+y,1/2-z
4 1/2+x,1/2-y,-z
_cell_length_a                   5.1818(10)
_cell_length_b                   16.968(3)
_cell_length_c                   19.484(4)
_cell_angle_alpha                90
_cell_angle_beta                 90
_cell_angle_gamma                90
_cell_volume                     1713.13
_exptl_crystal_colour            colorless
_exptl_crystal_description       block
_cell_formula_units_Z            4
loop_
_atom_site_label
_atom_site_type_symbol
_atom_site_fract_x
_atom_site_fract_y
_atom_site_fract_z
C1 C 0.3282(4) 0.43097(12) 0.65855(10)
H1 H 0.1566 0.4327 0.6351
C2 C 0.3854(4) 0.50942(11) 0.69399(10)
H2 H 0.5626 0.5077 0.7143
C3 C 0.1889(4) 0.52308(11) 0.75081(10)
H3 H 0.0174 0.5351 0.7297
C4 C 0.1619(4) 0.45132(12) 0.79776(11)
H4 H 0.0089 0.4585 0.8284
C5 C 0.1274(5) 0.37669(12) 0.75536(11)
H5 H -0.0392 0.3801 0.7296
C6 C 0.1278(6) 0.30211(14) 0.79839(12)
H6 H 0.1026 0.2563 0.7685
H7 H -0.0124 0.3046 0.8321
H8 H 0.2934 0.2973 0.8223
C7 C 0.4717(4) 0.36394(12) 0.55954(11)
C8 C 0.6856(5) 0.35718(14) 0.50908(11)
H9 H 0.7102 0.3017 0.4968
H10 H 0.8448 0.3779 0.5294
H11 H 0.6427 0.3875 0.4678
C9 C 0.5799(4) 0.60760(12) 0.61779(10)
C10 C 0.5121(4) 0.67368(12) 0.56627(11)
C11 C 0.0942(5) 0.63360(13) 0.82140(11)
C12 C 0.2160(6) 0.70111(14) 0.85856(13)
H12 H 0.0826 0.7392 0.8716
H13 H 0.3424 0.7268 0.8285
H14 H 0.3029 0.6816 0.8999
C13 C 0.3851(4) 0.47114(12) 0.90408(11)
C14 C 0.6170(4) 0.44563(14) 0.94350(11)
H15 H 0.7671 0.4764 0.9287
H16 H 0.6492 0.3895 0.9351
H17 H 0.5873 0.4542 0.9926
F1 F 0.4052(3) 0.64366(8) 0.50988(6)
F2 F 0.7207(3) 0.71321(8) 0.54797(7)
F3 F 0.3429(3) 0.72485(8) 0.59280(7)
N1 N 0.3700(3) 0.57409(10) 0.64480(8)
H18 H 0.2170 0.5916 0.6325
O1 O 0.3363(3) 0.36940(8) 0.70706(7)
O2 O 0.5281(3) 0.41733(8) 0.61054(7)
O3 O 0.2779(3) 0.59116(8) 0.78734(7)
O4 O 0.3917(3) 0.44154(8) 0.83929(7)
O5 O 0.2690(3) 0.32900(9) 0.55792(9)
O6 O 0.8048(3) 0.59089(9) 0.62873(8)
O7 O -0.1313(3) 0.61666(11) 0.82064(9)
O8 O 0.2109(3) 0.51128(9) 0.92552(8)
loop_
_geom_bond_atom_site_label_1
_geom_bond_atom_site_label_2
_geom_bond_site_symmetry_1
_geom_bond_site_symmetry_2
C1 H1 1_555 1_555
C2 C1 1_555 1_555
H2 C2 1_555 1_555
C3 C2 1_555 1_555
H3 C3 1_555 1_555
C4 C3 1_555 1_555
H4 C4 1_555 1_555
C5 C4 1_555 1_555
H5 C5 1_555 1_555
C6 C5 1_555 1_555
H6 C6 1_555 1_555
H7 C6 1_555 1_555
H8 C6 1_555 1_555
C7 C8 1_555 1_555
C8 H9 1_555 1_555
H10 C8 1_555 1_555
H11 C8 1_555 1_555
C9 C10 1_555 1_555
C10 F1 1_555 1_555
C11 C12 1_555 1_555
C12 H12 1_555 1_555
H13 C12 1_555 1_555
H14 C12 1_555 1_555
C13 C14 1_555 1_555
C14 H15 1_555 1_555
H16 C14 1_555 1_555
H17 C14 1_555 1_555
F2 C10 1_555 1_555
F3 C10 1_555 1_555
N1 C2 1_555 1_555
H18 N1 1_555 1_555
O1 C1 1_555 1_555
O2 C1 1_555 1_555
O3 C3 1_555 1_555
O4 C4 1_555 1_555
O5 C7 1_555 1_555
O6 C9 1_555 1_555
O7 C11 1_555 1_555
O8 C13 1_555 1_555
C5 O1 1_555 1_555
C7 O2 1_555 1_555
C9 N1 1_555 1_555
C11 O3 1_555 1_555
C13 O4 1_555 1_555

#END
