
#######################################################################
#
#                 Cambridge Crystallographic Data Centre
#                                CCDC 
#
#######################################################################
#
# If this CIF has been generated from an entry in the Cambridge 
# Structural Database, then it will include bibliographic, chemical, 
# crystal, experimental, refinement or atomic coordinate data resulting 
# from the CCDC's data processing and validation procedures.
#
#######################################################################

data_ZIZBOB
_chemical_formula_moiety         'C24 H17 N3 O1,C2 H6 O1'
_chemical_name_systematic        
'2-Amino-4-(4-hydroxyphenyl)-5,6-diphenylnicotinonitrile ethanol solvate'
_symmetry_cell_setting           orthorhombic
_symmetry_space_group_name_H-M   'P c a b'
_symmetry_Int_Tables_number      61
_space_group_name_Hall           '-P 2bc 2ac'
loop_
_symmetry_equiv_pos_site_id
_symmetry_equiv_pos_as_xyz
1 x,y,z
2 -x,1/2-y,1/2+z
3 1/2+x,-y,1/2-z
4 1/2-x,1/2+y,-z
5 -x,-y,-z
6 x,1/2+y,1/2-z
7 1/2-x,y,1/2+z
8 1/2+x,1/2-y,z
_cell_length_a                   9.3681(12)
_cell_length_b                   9.9916(14)
_cell_length_c                   46.994(10)
_cell_angle_alpha                90
_cell_angle_beta                 90
_cell_angle_gamma                90
_cell_volume                     4398.75
_exptl_crystal_colour            colorless
_exptl_crystal_description       block
_cell_formula_units_Z            8
loop_
_atom_site_label
_atom_site_type_symbol
_atom_site_fract_x
_atom_site_fract_y
_atom_site_fract_z
N1 N 0.6261(2) 0.9013(2) 0.64448(5)
O1 O 0.4734(2) 0.18118(18) 0.55574(4)
H1 H 0.5255 0.1604 0.5416
C1 C 0.5807(3) 0.9011(3) 0.61772(7)
C2 C 0.6474(3) 0.7844(3) 0.65805(6)
N2 N 0.4658(4) 0.8010(3) 0.55154(6)
C3 C 0.6224(3) 0.6594(3) 0.64488(6)
N3 N 0.5582(3) 1.0229(2) 0.60572(6)
H2 H 0.5734 1.0945 0.6154
H3 H 0.5288 1.0285 0.5884
C4 C 0.5768(3) 0.6588(3) 0.61679(6)
C5 C 0.5575(3) 0.7810(3) 0.60276(6)
C6 C 0.5063(4) 0.7876(3) 0.57394(7)
C7 C 0.6992(3) 0.8030(3) 0.68768(6)
C8 C 0.6540(4) 0.9154(3) 0.70288(7)
H4 H 0.5881 0.9735 0.6947
C9 C 0.7052(4) 0.9418(3) 0.72980(8)
H5 H 0.6745 1.0175 0.7396
C10 C 0.8017(4) 0.8563(4) 0.74222(7)
H6 H 0.8357 0.8733 0.7604
C11 C 0.8474(4) 0.7457(4) 0.72759(6)
H7 H 0.9133 0.6883 0.7360
C12 C 0.7971(3) 0.7181(3) 0.70060(7)
H8 H 0.8290 0.6423 0.6910
C13 C 0.6407(3) 0.5292(3) 0.66050(6)
C14 C 0.5494(4) 0.4938(3) 0.68204(7)
H9 H 0.4763 0.5513 0.6875
C15 C 0.5668(5) 0.3711(4) 0.69566(8)
H10 H 0.5064 0.3474 0.7105
C16 C 0.6728(6) 0.2851(4) 0.68721(10)
H11 H 0.6846 0.2035 0.6964
C17 C 0.7594(5) 0.3188(4) 0.66564(10)
H12 H 0.8303 0.2596 0.6599
C18 C 0.7449(4) 0.4402(3) 0.65191(7)
H13 H 0.8052 0.4620 0.6369
C19 C 0.5514(3) 0.5326(3) 0.60060(6)
C20 C 0.4409(3) 0.4458(3) 0.60817(6)
H14 H 0.3830 0.4663 0.6236
C21 C 0.4169(3) 0.3298(3) 0.59290(6)
H15 H 0.3426 0.2732 0.5981
C22 C 0.5017(3) 0.2972(3) 0.57013(6)
C23 C 0.6127(3) 0.3817(3) 0.56259(6)
H16 H 0.6721 0.3595 0.5474
C24 C 0.6351(3) 0.4981(3) 0.57745(6)
H17 H 0.7082 0.5551 0.5718
O2 O 0.6175(3) 0.1570(3) 0.50726(5)
H18 H 0.5944 0.2165 0.4952
C25 C 0.7793(8) -0.0084(5) 0.52433(16)
H19 H 0.8756 -0.0394 0.5220
H20 H 0.7145 -0.0819 0.5219
H21 H 0.7679 0.0284 0.5431
C26 C 0.7497(9) 0.0918(7) 0.50371(15)
H22 H 0.8251 0.1583 0.5044
H23 H 0.7518 0.0510 0.4850
loop_
_geom_bond_atom_site_label_1
_geom_bond_atom_site_label_2
_geom_bond_site_symmetry_1
_geom_bond_site_symmetry_2
N1 C1 1_555 1_555
O1 H1 1_555 1_555
C1 N3 1_555 1_555
C2 N1 1_555 1_555
N2 C6 1_555 1_555
C3 C2 1_555 1_555
N3 H2 1_555 1_555
H3 N3 1_555 1_555
C4 C3 1_555 1_555
C5 C1 1_555 1_555
C6 C5 1_555 1_555
C7 C2 1_555 1_555
C8 C7 1_555 1_555
H4 C8 1_555 1_555
C9 C8 1_555 1_555
H5 C9 1_555 1_555
C10 C9 1_555 1_555
H6 C10 1_555 1_555
C11 C10 1_555 1_555
H7 C11 1_555 1_555
C12 C7 1_555 1_555
H8 C12 1_555 1_555
C13 C3 1_555 1_555
C14 C13 1_555 1_555
H9 C14 1_555 1_555
C15 C14 1_555 1_555
H10 C15 1_555 1_555
C16 C15 1_555 1_555
H11 C16 1_555 1_555
C17 C16 1_555 1_555
H12 C17 1_555 1_555
C18 C13 1_555 1_555
H13 C18 1_555 1_555
C19 C4 1_555 1_555
C20 C19 1_555 1_555
H14 C20 1_555 1_555
C21 C20 1_555 1_555
H15 C21 1_555 1_555
C22 O1 1_555 1_555
C23 C22 1_555 1_555
H16 C23 1_555 1_555
C24 C19 1_555 1_555
H17 C24 1_555 1_555
O2 H18 1_555 1_555
C25 H19 1_555 1_555
H20 C25 1_555 1_555
H21 C25 1_555 1_555
C26 O2 1_555 1_555
H22 C26 1_555 1_555
H23 C26 1_555 1_555
C4 C5 1_555 1_555
C11 C12 1_555 1_555
C17 C18 1_555 1_555
C21 C22 1_555 1_555
C23 C24 1_555 1_555
C25 C26 1_555 1_555

#END
