
#######################################################################
#
#                 Cambridge Crystallographic Data Centre
#                                CCDC 
#
#######################################################################
#
# If this CIF has been generated from an entry in the Cambridge 
# Structural Database, then it will include bibliographic, chemical, 
# crystal, experimental, refinement or atomic coordinate data resulting 
# from the CCDC's data processing and validation procedures.
#
#######################################################################

data_ZIZCAO
_chemical_formula_moiety         'C24 H30 N4'
_chemical_name_systematic        
4,4'-Hydrazine-1,2-diylidenebis(1-benzylpiperidine)
_symmetry_cell_setting           monoclinic
_symmetry_space_group_name_H-M   'P 21/c'
_symmetry_Int_Tables_number      14
_space_group_name_Hall           '-P 2ybc'
loop_
_symmetry_equiv_pos_site_id
_symmetry_equiv_pos_as_xyz
1 x,y,z
2 -x,1/2+y,1/2-z
3 -x,-y,-z
4 x,1/2-y,1/2+z
_cell_length_a                   16.173(9)
_cell_length_b                   6.299(3)
_cell_length_c                   22.188(12)
_cell_angle_alpha                90
_cell_angle_beta                 109.451(9)
_cell_angle_gamma                90
_cell_volume                     2131.37
_exptl_crystal_colour            colorless
_exptl_crystal_description       block
_cell_formula_units_Z            4
loop_
_atom_site_label
_atom_site_type_symbol
_atom_site_fract_x
_atom_site_fract_y
_atom_site_fract_z
C1 C 0.35689(13) 0.0814(3) 0.01751(11)
C2 C 0.41441(17) -0.0761(4) 0.04713(12)
H1 H 0.4399 -0.0739 0.0914
C3 C 0.4350(2) -0.2352(4) 0.01349(17)
H2 H 0.4758 -0.3376 0.0347
C4 C 0.3962(2) -0.2457(4) -0.05141(17)
H3 H 0.4087 -0.3577 -0.0743
C5 C 0.33864(19) -0.0892(4) -0.08247(13)
H4 H 0.3123 -0.0941 -0.1266
C6 C 0.32021(16) 0.0738(3) -0.04826(12)
H5 H 0.2823 0.1813 -0.0696
C7 C 0.33833(15) 0.2619(4) 0.05473(12)
H6 H 0.3648 0.2315 0.1000
H7 H 0.3660 0.3889 0.0456
C8 C 0.23389(16) 0.5028(3) 0.07117(13)
H8 H 0.2634 0.6158 0.0567
H9 H 0.2614 0.4900 0.1171
C9 C 0.13865(15) 0.5623(3) 0.05643(11)
H10 H 0.1346 0.6871 0.0809
H11 H 0.1130 0.5965 0.0114
C10 C 0.08921(13) 0.3849(3) 0.07245(9)
C11 C 0.10630(14) 0.1725(3) 0.04865(11)
H12 H 0.0773 0.1652 0.0028
H13 H 0.0818 0.0623 0.0682
C12 C 0.20369(15) 0.1335(3) 0.06406(11)
H14 H 0.2312 0.1196 0.1100
H15 H 0.2122 0.0012 0.0445
C13 C -0.05060(14) 0.6303(3) 0.13183(9)
C14 C -0.07065(15) 0.8433(3) 0.15325(11)
H16 H -0.1158 0.9119 0.1184
H17 H -0.0185 0.9313 0.1645
C15 C -0.10155(15) 0.8238(3) 0.21040(11)
H18 H -0.0539 0.7707 0.2467
H19 H -0.1179 0.9629 0.2214
C16 C -0.15155(14) 0.4697(3) 0.18207(10)
H20 H -0.2011 0.3743 0.1744
H21 H -0.1043 0.4162 0.2186
C17 C -0.12206(14) 0.4700(3) 0.12394(10)
H22 H -0.1008 0.3300 0.1182
H23 H -0.1714 0.5036 0.0861
C18 C -0.20700(16) 0.6712(4) 0.25255(11)
H24 H -0.2159 0.8147 0.2650
H25 H -0.1617 0.6064 0.2881
C19 C -0.29056(15) 0.5482(3) 0.23974(10)
C20 C -0.36979(17) 0.6291(4) 0.19990(11)
H26 H -0.3711 0.7606 0.1805
C21 C -0.44608(17) 0.5172(4) 0.18890(12)
H27 H -0.4985 0.5737 0.1620
C22 C -0.44628(18) 0.3252(4) 0.21657(12)
H28 H -0.4985 0.2514 0.2091
C23 C -0.36884(19) 0.2410(4) 0.25554(12)
H29 H -0.3683 0.1087 0.2743
C24 C -0.29162(17) 0.3522(4) 0.26705(11)
H30 H -0.2394 0.2940 0.2937
N1 N 0.24532(11) 0.3048(2) 0.04116(8)
N2 N 0.03521(13) 0.3952(2) 0.10290(9)
N3 N 0.02250(12) 0.6044(2) 0.12304(8)
N4 N -0.17661(11) 0.6803(2) 0.19703(8)
loop_
_geom_bond_atom_site_label_1
_geom_bond_atom_site_label_2
_geom_bond_site_symmetry_1
_geom_bond_site_symmetry_2
C1 C2 1_555 1_555
C2 H1 1_555 1_555
C3 C2 1_555 1_555
H2 C3 1_555 1_555
C4 C3 1_555 1_555
H3 C4 1_555 1_555
C5 C4 1_555 1_555
H4 C5 1_555 1_555
C6 C1 1_555 1_555
H5 C6 1_555 1_555
C7 C1 1_555 1_555
H6 C7 1_555 1_555
H7 C7 1_555 1_555
C8 H8 1_555 1_555
H9 C8 1_555 1_555
C9 C8 1_555 1_555
H10 C9 1_555 1_555
H11 C9 1_555 1_555
C10 C9 1_555 1_555
C11 C10 1_555 1_555
H12 C11 1_555 1_555
H13 C11 1_555 1_555
C12 C11 1_555 1_555
H14 C12 1_555 1_555
H15 C12 1_555 1_555
C13 C14 1_555 1_555
C14 H16 1_555 1_555
H17 C14 1_555 1_555
C15 C14 1_555 1_555
H18 C15 1_555 1_555
H19 C15 1_555 1_555
C16 H20 1_555 1_555
H21 C16 1_555 1_555
C17 C13 1_555 1_555
H22 C17 1_555 1_555
H23 C17 1_555 1_555
C18 H24 1_555 1_555
H25 C18 1_555 1_555
C19 C18 1_555 1_555
C20 C19 1_555 1_555
H26 C20 1_555 1_555
C21 C20 1_555 1_555
H27 C21 1_555 1_555
C22 C21 1_555 1_555
H28 C22 1_555 1_555
C23 C22 1_555 1_555
H29 C23 1_555 1_555
C24 C19 1_555 1_555
H30 C24 1_555 1_555
N1 C7 1_555 1_555
N2 C10 1_555 1_555
N3 C13 1_555 1_555
N4 C15 1_555 1_555
C5 C6 1_555 1_555
C8 N1 1_555 1_555
C12 N1 1_555 1_555
C16 C17 1_555 1_555
C16 N4 1_555 1_555
C18 N4 1_555 1_555
C23 C24 1_555 1_555
N2 N3 1_555 1_555

#END
