
#######################################################################
#
#                 Cambridge Crystallographic Data Centre
#                                CCDC 
#
#######################################################################
#
# If this CIF has been generated from an entry in the Cambridge 
# Structural Database, then it will include bibliographic, chemical, 
# crystal, experimental, refinement or atomic coordinate data resulting 
# from the CCDC's data processing and validation procedures.
#
#######################################################################

data_ZIZDUJ01
_chemical_formula_moiety         'C2 H6 N8'
_chemical_name_systematic        3,6-dihydrazino-1,2,4,5-tetrazine
_symmetry_cell_setting           monoclinic
_symmetry_space_group_name_H-M   'P 21/c'
_symmetry_Int_Tables_number      14
_space_group_name_Hall           '-P 2ybc'
loop_
_symmetry_equiv_pos_site_id
_symmetry_equiv_pos_as_xyz
1 x,y,z
2 -x,1/2+y,1/2-z
3 -x,-y,-z
4 x,1/2-y,1/2+z
_cell_length_a                   4.032(4)
_cell_length_b                   5.649(6)
_cell_length_c                   12.074(14)
_cell_angle_alpha                90
_cell_angle_beta                 99.318(13)
_cell_angle_gamma                90
_cell_volume                     271.378
_exptl_crystal_colour            red
_exptl_crystal_description       prism
_cell_formula_units_Z            2
loop_
_atom_site_label
_atom_site_type_symbol
_atom_site_fract_x
_atom_site_fract_y
_atom_site_fract_z
N1 N 0.3915(4) 0.7293(3) 0.49152(13)
N2 N 0.5672(4) 0.6467(3) 0.41609(13)
N3 N 0.8568(4) 0.3402(3) 0.35087(14)
N4 N 0.9401(5) 0.0982(3) 0.34278(14)
C1 C 0.6706(4) 0.4189(3) 0.42678(15)
H1 H 0.895(5) 0.437(4) 0.293(2)
H2 H 1.091(6) 0.058(4) 0.405(2)
H3 H 0.754(6) 0.005(5) 0.343(2)
N1B N 0.6085(4) 0.2707(3) 0.50848(13)
N2B N 0.4328(4) 0.3533(3) 0.58391(13)
N3B N 0.1432(4) 0.6598(3) 0.64913(14)
N4B N 0.0599(5) 0.9018(3) 0.65722(14)
C1B C 0.3294(4) 0.5811(3) 0.57322(15)
H1B H 0.105(5) 0.563(4) 0.707(2)
H2B H -0.091(6) 0.942(4) 0.595(2)
H3B H 0.246(6) 0.995(5) 0.657(2)
loop_
_geom_bond_atom_site_label_1
_geom_bond_atom_site_label_2
_geom_bond_site_symmetry_1
_geom_bond_site_symmetry_2
N1 N2 1_555 1_555
N2 C1 1_555 1_555
N3 N4 1_555 1_555
N4 H2 1_555 1_555
C1 N3 1_555 1_555
H1 N3 1_555 1_555
H3 N4 1_555 1_555
N1B C1 1_555 1_555
N2B N1B 1_555 1_555
N3B N4B 1_555 1_555
N4B H2B 1_555 1_555
C1B N1 1_555 1_555
H1B N3B 1_555 1_555
H3B N4B 1_555 1_555
N2B C1B 1_555 1_555
N3B C1B 1_555 1_555

#END
