
#######################################################################
#
#                 Cambridge Crystallographic Data Centre
#                                CCDC 
#
#######################################################################
#
# If this CIF has been generated from an entry in the Cambridge 
# Structural Database, then it will include bibliographic, chemical, 
# crystal, experimental, refinement or atomic coordinate data resulting 
# from the CCDC's data processing and validation procedures.
#
#######################################################################

data_ZOBBOK
_chemical_formula_moiety         'C29 H23 Cl1 N2 O3 S1'
_chemical_name_systematic        
N-{[4-(4-chlorophenyl)-2H-1,3-benzoxazin-2-ylidene](phenyl)methyl}-N,4-dimethylbenzene-1-sulfonamide
_symmetry_cell_setting           triclinic
_symmetry_space_group_name_H-M   'P -1'
_symmetry_Int_Tables_number      2
_space_group_name_Hall           '-P 1'
loop_
_symmetry_equiv_pos_site_id
_symmetry_equiv_pos_as_xyz
1 x,y,z
2 -x,-y,-z
_cell_length_a                   10.8105(3)
_cell_length_b                   11.2376(2)
_cell_length_c                   11.9765(3)
_cell_angle_alpha                100.2570(10)
_cell_angle_beta                 114.3150(10)
_cell_angle_gamma                104.6740(10)
_cell_volume                     1215.07
_exptl_crystal_colour            red
_exptl_crystal_description       prismatic
_cell_formula_units_Z            2
loop_
_atom_site_label
_atom_site_type_symbol
_atom_site_fract_x
_atom_site_fract_y
_atom_site_fract_z
Cl1 Cl 0.74743(4) 0.06863(5) 0.00713(4)
S1 S 0.33425(4) 0.34412(4) 0.68341(4)
O1 O 0.65486(10) 0.33322(10) 0.68936(10)
O2 O 0.23195(11) 0.33426(11) 0.55621(11)
O3 O 0.29033(13) 0.33860(12) 0.78064(12)
N1 N 0.58087(13) 0.21282(12) 0.47216(12)
N2 N 0.39307(13) 0.22472(12) 0.66782(12)
C1 C 0.79111(15) 0.39616(14) 0.70528(14)
C2 C 0.89107(16) 0.48739(15) 0.82471(15)
H1 H 0.8652 0.5053 0.8909
C3 C 1.03024(17) 0.55232(16) 0.84563(17)
H2 H 1.1008 0.6145 0.9275
C4 C 1.06745(17) 0.52750(16) 0.74862(17)
H3 H 1.1629 0.5731 0.7640
C5 C 0.96628(16) 0.43686(16) 0.62982(16)
H4 H 0.9920 0.4210 0.5632
C6 C 0.82568(15) 0.36777(14) 0.60630(14)
C7 C 0.70978(15) 0.26805(14) 0.48610(14)
C8 C 0.54958(15) 0.24276(14) 0.57083(14)
C9 C 0.41546(15) 0.18405(14) 0.55879(14)
C10 C 0.29502(15) 0.07106(14) 0.44903(14)
C11 C 0.31141(16) -0.00591(15) 0.35414(15)
H5 H 0.4032 0.0169 0.3560
C12 C 0.19639(18) -0.11449(15) 0.25775(16)
H6 H 0.2102 -0.1644 0.1941
C13 C 0.06147(17) -0.15132(15) 0.25285(15)
H7 H -0.0167 -0.2268 0.1874
C14 C 0.04268(17) -0.07679(16) 0.34431(17)
H8 H -0.0498 -0.1003 0.3411
C15 C 0.15684(16) 0.03230(16) 0.44119(16)
H9 H 0.1412 0.0820 0.5037
C16 C 0.72694(15) 0.22431(14) 0.37066(14)
C17 C 0.84947(16) 0.19830(16) 0.37815(15)
H10 H 0.9288 0.2139 0.4603
C18 C 0.85622(17) 0.15002(16) 0.26691(16)
H11 H 0.9392 0.1317 0.2723
C19 C 0.74066(16) 0.12886(15) 0.14806(15)
C20 C 0.61839(16) 0.15450(15) 0.13757(15)
H12 H 0.5403 0.1404 0.0551
C21 C 0.61186(15) 0.20098(14) 0.24892(14)
H13 H 0.5276 0.2174 0.2426
C22 C 0.48219(15) 0.49137(14) 0.74337(14)
C23 C 0.56990(17) 0.55257(17) 0.87528(15)
H14 H 0.5477 0.5182 0.9346
C24 C 0.69020(17) 0.66419(17) 0.91992(15)
H15 H 0.7483 0.7080 1.0103
C25 C 0.72763(15) 0.71344(14) 0.83497(15)
C26 C 0.63708(16) 0.65141(14) 0.70297(15)
H16 H 0.6606 0.6843 0.6436
C27 C 0.51334(16) 0.54258(14) 0.65668(14)
H17 H 0.4502 0.5032 0.5662
C28 C 0.86476(18) 0.82826(16) 0.88332(18)
H18 H 0.8982 0.8766 0.9734
H19 H 0.8452 0.8850 0.8300
H20 H 0.9403 0.7981 0.8781
C29 C 0.4595(2) 0.18136(18) 0.77938(16)
H21 H 0.5639 0.2338 0.8302
H22 H 0.4462 0.0898 0.7489
H23 H 0.4128 0.1915 0.8335
loop_
_geom_bond_atom_site_label_1
_geom_bond_atom_site_label_2
_geom_bond_site_symmetry_1
_geom_bond_site_symmetry_2
Cl1 C19 1_555 1_555
S1 O2 1_555 1_555
O1 C1 1_555 1_555
O3 S1 1_555 1_555
N1 C7 1_555 1_555
N2 S1 1_555 1_555
C1 C2 1_555 1_555
C2 H1 1_555 1_555
C3 C2 1_555 1_555
H2 C3 1_555 1_555
C4 C3 1_555 1_555
H3 C4 1_555 1_555
C5 C4 1_555 1_555
H4 C5 1_555 1_555
C6 C1 1_555 1_555
C7 C6 1_555 1_555
C8 O1 1_555 1_555
C9 N2 1_555 1_555
C10 C9 1_555 1_555
C11 C10 1_555 1_555
H5 C11 1_555 1_555
C12 C11 1_555 1_555
H6 C12 1_555 1_555
C13 C12 1_555 1_555
H7 C13 1_555 1_555
C14 C13 1_555 1_555
H8 C14 1_555 1_555
C15 C10 1_555 1_555
H9 C15 1_555 1_555
C16 C7 1_555 1_555
C17 C16 1_555 1_555
H10 C17 1_555 1_555
C18 C17 1_555 1_555
H11 C18 1_555 1_555
C19 C18 1_555 1_555
C20 C19 1_555 1_555
H12 C20 1_555 1_555
C21 C16 1_555 1_555
H13 C21 1_555 1_555
C22 S1 1_555 1_555
C23 C22 1_555 1_555
H14 C23 1_555 1_555
C24 C23 1_555 1_555
H15 C24 1_555 1_555
C25 C24 1_555 1_555
C26 C25 1_555 1_555
H16 C26 1_555 1_555
C27 C22 1_555 1_555
H17 C27 1_555 1_555
C28 C25 1_555 1_555
H18 C28 1_555 1_555
H19 C28 1_555 1_555
H20 C28 1_555 1_555
C29 N2 1_555 1_555
H21 C29 1_555 1_555
H22 C29 1_555 1_555
H23 C29 1_555 1_555
N1 C8 1_555 1_555
C5 C6 1_555 1_555
C8 C9 1_555 1_555
C14 C15 1_555 1_555
C20 C21 1_555 1_555
C26 C27 1_555 1_555

#END
