
#######################################################################
#
#                 Cambridge Crystallographic Data Centre
#                                CCDC 
#
#######################################################################
#
# If this CIF has been generated from an entry in the Cambridge 
# Structural Database, then it will include bibliographic, chemical, 
# crystal, experimental, refinement or atomic coordinate data resulting 
# from the CCDC's data processing and validation procedures.
#
#######################################################################

data_ZOCHAC
_chemical_formula_moiety         'C18 H17 N5 O3 S1,H2 O1'
_chemical_name_systematic        
'6-(3,5-Dimethyl-1H-pyrazol-1-yl)-4-methyl-1H-pyrazolo[3,4-b]pyridin-3-yl benzenesulfonate monohydrate'
_symmetry_cell_setting           monoclinic
_symmetry_space_group_name_H-M   'P 21/n'
_symmetry_Int_Tables_number      14
_space_group_name_Hall           '-P 2yn'
loop_
_symmetry_equiv_pos_site_id
_symmetry_equiv_pos_as_xyz
1 x,y,z
2 1/2-x,1/2+y,1/2-z
3 -x,-y,-z
4 1/2+x,1/2-y,1/2+z
_cell_length_a                   8.8538(6)
_cell_length_b                   9.0980(6)
_cell_length_c                   24.1702(16)
_cell_angle_alpha                90
_cell_angle_beta                 91.978(2)
_cell_angle_gamma                90
_cell_volume                     1945.79
_exptl_crystal_colour            colorless
_exptl_crystal_description       stick
_cell_formula_units_Z            4
loop_
_atom_site_label
_atom_site_type_symbol
_atom_site_fract_x
_atom_site_fract_y
_atom_site_fract_z
S1 S 0.14937(7) 0.46360(6) 0.18800(2)
N1 N 0.2836(2) 0.53441(19) 0.06385(7)
N2 N 0.26809(18) 0.63493(19) 0.02216(7)
H1 H 0.3406 0.6638 0.0020
N3 N 0.07263(18) 0.77889(17) -0.02219(6)
N4 N -0.13443(18) 0.90308(17) -0.05976(6)
N5 N -0.2851(2) 0.93919(18) -0.05797(8)
O1 O 0.12137(16) 0.41893(14) 0.12428(5)
O2 O 0.1149(2) 0.61414(18) 0.19411(6)
O3 O 0.0665(2) 0.3557(2) 0.21629(7)
C1 C 0.4022(3) 0.2957(3) 0.19185(10)
H2 H 0.3396 0.2178 0.1812
C2 C 0.5546(3) 0.2742(4) 0.20085(12)
H3 H 0.5961 0.1814 0.1960
C3 C 0.6454(3) 0.3892(5) 0.21699(12)
H4 H 0.7485 0.3743 0.2232
C4 C 0.5857(4) 0.5245(5) 0.22397(12)
H5 H 0.6486 0.6017 0.2351
C5 C 0.4335(3) 0.5500(3) 0.21486(10)
H6 H 0.3930 0.6434 0.2195
C6 C 0.3435(3) 0.4344(2) 0.19886(8)
C7 C 0.1484(2) 0.5236(2) 0.08378(7)
C8 C 0.0403(2) 0.6141(2) 0.05688(7)
C9 C -0.1141(2) 0.6484(2) 0.05949(8)
C10 C -0.1680(2) 0.7468(2) 0.02070(8)
H7 H -0.2692 0.7745 0.0206
C11 C -0.0728(2) 0.8068(2) -0.01914(7)
C12 C 0.1241(2) 0.6834(2) 0.01655(7)
C13 C -0.2125(3) 0.5819(3) 0.10214(10)
H8 H -0.3159 0.6084 0.0942
H9 H -0.1819 0.6179 0.1382
H10 H -0.2026 0.4769 0.1014
C14 C 0.0931(3) 0.9566(3) -0.11800(10)
H11 H 0.1113 0.8568 -0.1288
H12 H 0.1580 0.9812 -0.0867
H13 H 0.1135 1.0212 -0.1482
C15 C -0.0669(3) 0.9729(2) -0.10287(8)
C16 C -0.1772(3) 1.0558(2) -0.12796(10)
H14 H -0.1666 1.1167 -0.1585
C17 C -0.3090(3) 1.0322(2) -0.09941(10)
C18 C -0.4627(3) 1.0966(3) -0.11013(14)
H15 H -0.5315 1.0568 -0.0842
H16 H -0.4974 1.0728 -0.1471
H17 H -0.4578 1.2014 -0.1060
O4 O 0.49199(16) 0.69717(18) 0.94983(7)
H18 H 0.5483 0.6224 0.9462
H19 H 0.5469 0.7736 0.9481
loop_
_geom_bond_atom_site_label_1
_geom_bond_atom_site_label_2
_geom_bond_site_symmetry_1
_geom_bond_site_symmetry_2
S1 O1 1_555 1_555
N1 N2 1_555 1_555
N2 H1 1_555 1_555
N3 C11 1_555 1_555
N4 N5 1_555 1_555
N5 C17 1_555 1_555
O1 C7 1_555 1_555
O2 S1 1_555 1_555
O3 S1 1_555 1_555
C1 H2 1_555 1_555
C2 C1 1_555 1_555
H3 C2 1_555 1_555
C3 C2 1_555 1_555
H4 C3 1_555 1_555
C4 C3 1_555 1_555
H5 C4 1_555 1_555
C5 C4 1_555 1_555
H6 C5 1_555 1_555
C6 S1 1_555 1_555
C7 N1 1_555 1_555
C8 C7 1_555 1_555
C9 C8 1_555 1_555
C10 C9 1_555 1_555
H7 C10 1_555 1_555
C11 N4 1_555 1_555
C12 N2 1_555 1_555
C13 C9 1_555 1_555
H8 C13 1_555 1_555
H9 C13 1_555 1_555
H10 C13 1_555 1_555
C14 H11 1_555 1_555
H12 C14 1_555 1_555
H13 C14 1_555 1_555
C15 N4 1_555 1_555
C16 C15 1_555 1_555
H14 C16 1_555 1_555
C17 C16 1_555 1_555
C18 C17 1_555 1_555
H15 C18 1_555 1_555
H16 C18 1_555 1_555
H17 C18 1_555 1_555
O4 H18 1_555 1_555
H19 O4 1_555 1_555
N3 C12 1_555 1_555
C1 C6 1_555 1_555
C5 C6 1_555 1_555
C8 C12 1_555 1_555
C10 C11 1_555 1_555
C14 C15 1_555 1_555

#END
