
#######################################################################
#
#                 Cambridge Crystallographic Data Centre
#                                CCDC 
#
#######################################################################
#
# If this CIF has been generated from an entry in the Cambridge 
# Structural Database, then it will include bibliographic, chemical, 
# crystal, experimental, refinement or atomic coordinate data resulting 
# from the CCDC's data processing and validation procedures.
#
#######################################################################

data_ZODBUR
_chemical_formula_moiety         'C24 H18 O2'
_chemical_name_systematic        3,10-dimethoxypicene
_symmetry_cell_setting           orthorhombic
_symmetry_space_group_name_H-M   'P 21 21 21'
_symmetry_Int_Tables_number      19
_space_group_name_Hall           'P 2ac 2ab'
loop_
_symmetry_equiv_pos_site_id
_symmetry_equiv_pos_as_xyz
1 x,y,z
2 1/2+x,1/2-y,-z
3 -x,1/2+y,1/2-z
4 1/2-x,-y,1/2+z
_cell_length_a                   6.2114(15)
_cell_length_b                   7.8271(19)
_cell_length_c                   34.589(9)
_cell_angle_alpha                90
_cell_angle_beta                 90
_cell_angle_gamma                90
_cell_volume                     1681.62
_exptl_crystal_colour            colorless
_exptl_crystal_description       platelet
_cell_formula_units_Z            4
_exptl_crystal_recrystallization_method toluene
loop_
_atom_site_label
_atom_site_type_symbol
_atom_site_fract_x
_atom_site_fract_y
_atom_site_fract_z
O1 O 0.2325(2) 0.5784(2) 0.28026(3)
O2 O 0.4384(2) 0.44470(17) -0.12448(3)
C1 C 0.2651(3) 0.5703(3) 0.24136(5)
C2 C 0.1107(3) 0.4761(3) 0.22086(5)
C3 C 0.1261(3) 0.4579(3) 0.18173(5)
C4 C 0.2976(3) 0.5302(2) 0.16053(4)
C5 C 0.3203(3) 0.5131(2) 0.11911(4)
C6 C 0.1635(3) 0.4300(2) 0.09619(5)
C7 C 0.1845(3) 0.4148(2) 0.05740(4)
C8 C 0.3655(2) 0.48088(19) 0.03735(4)
C9 C 0.3861(2) 0.46785(19) -0.00412(4)
C10 C 0.2272(3) 0.3946(2) -0.02819(5)
C11 C 0.2500(3) 0.3901(2) -0.06736(5)
C12 C 0.4343(3) 0.4576(2) -0.08506(4)
C13 C 0.5932(3) 0.5280(2) -0.06299(4)
C14 C 0.5714(2) 0.5344(2) -0.02243(4)
C15 C 0.7342(3) 0.6112(2) 0.00082(5)
C16 C 0.7125(3) 0.6252(2) 0.03936(5)
C17 C 0.5269(2) 0.56264(19) 0.05927(4)
C18 C 0.5021(2) 0.5817(2) 0.10040(4)
C19 C 0.6555(3) 0.6731(3) 0.12305(5)
C20 C 0.6314(3) 0.6941(3) 0.16148(5)
C21 C 0.4536(3) 0.6226(2) 0.18164(4)
C22 C 0.4341(3) 0.6423(2) 0.22202(5)
C23 C 0.3913(5) 0.6641(5) 0.30245(6)
C24 C 0.6234(4) 0.5091(4) -0.14375(6)
H1 H -0.009(3) 0.422(3) 0.2355(5)
H2 H 0.015(3) 0.392(3) 0.1682(5)
H3 H 0.037(3) 0.385(2) 0.1081(5)
H4 H 0.067(3) 0.364(2) 0.0421(4)
H5 H 0.101(3) 0.350(2) -0.0171(4)
H6 H 0.138(3) 0.340(3) -0.0832(5)
H7 H 0.724(3) 0.574(2) -0.0738(4)
H8 H 0.864(3) 0.657(2) -0.0120(5)
H9 H 0.825(3) 0.683(3) 0.0534(5)
H10 H 0.774(3) 0.723(2) 0.1102(5)
H11 H 0.732(3) 0.763(3) 0.1763(5)
H12 H 0.545(3) 0.711(3) 0.2360(5)
H13 H 0.530(5) 0.599(4) 0.2990(7)
H14 H 0.400(5) 0.792(4) 0.2949(7)
H15 H 0.343(4) 0.649(3) 0.3294(7)
H16 H 0.757(4) 0.446(3) -0.1351(6)
H17 H 0.640(5) 0.639(4) -0.1376(7)
H18 H 0.599(4) 0.490(3) -0.1723(6)
loop_
_geom_bond_atom_site_label_1
_geom_bond_atom_site_label_2
_geom_bond_site_symmetry_1
_geom_bond_site_symmetry_2
O1 C1 1_555 1_555
O2 C12 1_555 1_555
C1 C2 1_555 1_555
C2 C3 1_555 1_555
C3 C4 1_555 1_555
C4 C5 1_555 1_555
C5 C6 1_555 1_555
C6 C7 1_555 1_555
C7 C8 1_555 1_555
C8 C9 1_555 1_555
C9 C10 1_555 1_555
C10 C11 1_555 1_555
C11 C12 1_555 1_555
C12 C13 1_555 1_555
C13 C14 1_555 1_555
C14 C9 1_555 1_555
C15 C14 1_555 1_555
C16 C15 1_555 1_555
C17 C8 1_555 1_555
C18 C5 1_555 1_555
C19 C18 1_555 1_555
C20 C19 1_555 1_555
C21 C4 1_555 1_555
C22 C1 1_555 1_555
C23 O1 1_555 1_555
C24 O2 1_555 1_555
H1 C2 1_555 1_555
H2 C3 1_555 1_555
H3 C6 1_555 1_555
H4 C7 1_555 1_555
H5 C10 1_555 1_555
H6 C11 1_555 1_555
H7 C13 1_555 1_555
H8 C15 1_555 1_555
H9 C16 1_555 1_555
H10 C19 1_555 1_555
H11 C20 1_555 1_555
H12 C22 1_555 1_555
H13 C23 1_555 1_555
H14 C23 1_555 1_555
H15 C23 1_555 1_555
H16 C24 1_555 1_555
H17 C24 1_555 1_555
H18 C24 1_555 1_555
C16 C17 1_555 1_555
C17 C18 1_555 1_555
C20 C21 1_555 1_555
C21 C22 1_555 1_555

#END
