
#######################################################################
#
#                 Cambridge Crystallographic Data Centre
#                                CCDC 
#
#######################################################################
#
# If this CIF has been generated from an entry in the Cambridge 
# Structural Database, then it will include bibliographic, chemical, 
# crystal, experimental, refinement or atomic coordinate data resulting 
# from the CCDC's data processing and validation procedures.
#
#######################################################################

data_ZODJUZ
_chemical_formula_moiety         'C17 H22 Br1 N1 O3'
_chemical_name_systematic        
'2,4-dimethylpentan-3-yl 6-bromo-1-methyl-3-oxoisoindoline-1-carboxylate'
_symmetry_cell_setting           orthorhombic
_symmetry_space_group_name_H-M   'P 21 21 21'
_symmetry_Int_Tables_number      19
_space_group_name_Hall           'P 2ac 2ab'
loop_
_symmetry_equiv_pos_site_id
_symmetry_equiv_pos_as_xyz
1 x,y,z
2 1/2-x,-y,1/2+z
3 -x,1/2+y,1/2-z
4 1/2+x,1/2-y,-z
_cell_length_a                   8.6009(7)
_cell_length_b                   17.4460(16)
_cell_length_c                   26.300(2)
_cell_angle_alpha                90
_cell_angle_beta                 90
_cell_angle_gamma                90
_cell_volume                     3946.35
_exptl_crystal_colour            colorless
_exptl_crystal_description       prismatic
_cell_formula_units_Z            8
loop_
_atom_site_label
_atom_site_type_symbol
_atom_site_fract_x
_atom_site_fract_y
_atom_site_fract_z
Br1 Br -0.27772(8) 0.10888(4) 0.14413(2)
O1 O -0.0856(6) 0.0870(3) 0.40457(18)
O2 O 0.3069(6) 0.1679(3) 0.23820(17)
O3 O 0.1995(7) 0.2230(3) 0.30726(17)
N1 N 0.1208(6) 0.0887(3) 0.3493(2)
H1 H 0.196(9) 0.087(4) 0.371(3)
C1 C 0.1557(7) 0.0891(4) 0.2952(2)
C2 C -0.0324(7) 0.0886(4) 0.3612(2)
C3 C -0.1169(7) 0.0896(4) 0.3120(2)
C4 C -0.2764(8) 0.0935(4) 0.3024(2)
H2 H -0.3506 0.0928 0.3292
C5 C -0.3213(7) 0.0983(4) 0.2516(3)
H3 H -0.4287 0.1005 0.2433
C6 C -0.2122(8) 0.0998(4) 0.2129(2)
C7 C -0.0538(7) 0.0952(4) 0.2222(2)
H4 H 0.0200 0.0953 0.1954
C8 C -0.0085(7) 0.0904(4) 0.2729(2)
C9 C 0.2517(8) 0.0194(4) 0.2796(3)
H5 H 0.3485 0.0184 0.2992
H6 H 0.2760 0.0224 0.2433
H7 H 0.1922 -0.0274 0.2864
C10 C 0.2326(8) 0.1640(4) 0.2770(2)
C11 C 0.2429(11) 0.3009(4) 0.2912(3)
H8 H 0.2799 0.2987 0.2552
C12 C 0.3798(13) 0.3254(5) 0.3253(5)
H9 H 0.3422 0.3275 0.3612
C13 C 0.5157(13) 0.2700(6) 0.3227(5)
H10 H 0.4846 0.2205 0.3371
H11 H 0.6032 0.2908 0.3422
H12 H 0.5471 0.2630 0.2872
C14 C 0.4337(18) 0.4070(7) 0.3096(7)
H13 H 0.5360 0.4175 0.3244
H14 H 0.3586 0.4449 0.3219
H15 H 0.4406 0.4101 0.2724
C15 C 0.0979(14) 0.3494(5) 0.2932(4)
H16 H 0.1254 0.4012 0.2796
C16 C 0.0325(16) 0.3608(8) 0.3462(4)
H17 H 0.0202 0.3109 0.3628
H18 H -0.0689 0.3862 0.3439
H19 H 0.1039 0.3927 0.3661
C17 C -0.0312(15) 0.3155(7) 0.2580(4)
H20 H 0.0143 0.3015 0.2252
H21 H -0.1128 0.3539 0.2528
H22 H -0.0762 0.2699 0.2740
Br2 Br 0.20462(8) -0.07019(4) 0.63068(2)
O4 O 0.4185(6) 0.0839(3) 0.39338(18)
O5 O 0.7982(7) -0.0970(3) 0.52021(18)
O6 O 0.6995(6) -0.0914(3) 0.44070(17)
N2 N 0.6219(7) 0.0539(3) 0.4463(2)
H23 H 0.682(11) 0.065(6) 0.425(4)
C18 C 0.6524(7) 0.0154(4) 0.4944(2)
C19 C 0.4697(8) 0.0573(4) 0.4332(2)
C20 C 0.3833(8) 0.0248(4) 0.4771(2)
C21 C 0.2239(9) 0.0173(4) 0.4843(2)
H24 H 0.1527 0.0325 0.4586
C22 C 0.1711(8) -0.0131(4) 0.5305(3)
H25 H 0.0630 -0.0198 0.5365
C23 C 0.2793(9) -0.0333(4) 0.5676(2)
C24 C 0.4407(8) -0.0280(4) 0.5597(2)
H26 H 0.5127 -0.0444 0.5848
C25 C 0.4908(7) 0.0019(4) 0.5136(2)
C26 C 0.7516(7) 0.0640(4) 0.5303(3)
H27 H 0.8532 0.0736 0.5147
H28 H 0.7660 0.0366 0.5625
H29 H 0.6993 0.1130 0.5368
C27 C 0.7287(8) -0.0642(4) 0.4872(2)
C28 C 0.7471(9) -0.1705(4) 0.4287(3)
H30 H 0.7844 -0.1958 0.4606
C29 C 0.8832(10) -0.1661(4) 0.3906(3)
H31 H 0.8449 -0.1415 0.3586
C30 C 1.0175(9) -0.1184(5) 0.4114(3)
H32 H 0.9829 -0.0654 0.4166
H33 H 1.1040 -0.1192 0.3872
H34 H 1.0520 -0.1400 0.4439
C31 C 0.9402(13) -0.2473(5) 0.3778(4)
H35 H 1.0362 -0.2441 0.3579
H36 H 0.8604 -0.2742 0.3581
H37 H 0.9603 -0.2754 0.4094
C32 C 0.5972(11) -0.2111(5) 0.4106(4)
H38 H 0.6274 -0.2653 0.4031
C33 C 0.5300(13) -0.1798(8) 0.3622(5)
H39 H 0.6029 -0.1888 0.3342
H40 H 0.5119 -0.1247 0.3660
H41 H 0.4313 -0.2057 0.3549
C34 C 0.4817(14) -0.2149(7) 0.4548(5)
H42 H 0.4392 -0.1636 0.4612
H43 H 0.5349 -0.2333 0.4853
H44 H 0.3969 -0.2500 0.4461
loop_
_geom_bond_atom_site_label_1
_geom_bond_atom_site_label_2
_geom_bond_site_symmetry_1
_geom_bond_site_symmetry_2
Br1 C6 1_555 1_555
O1 C2 1_555 1_555
O2 C10 1_555 1_555
O3 C10 1_555 1_555
N1 H1 1_555 1_555
C1 N1 1_555 1_555
C2 N1 1_555 1_555
C3 C2 1_555 1_555
C4 C3 1_555 1_555
H2 C4 1_555 1_555
C5 C4 1_555 1_555
H3 C5 1_555 1_555
C6 C5 1_555 1_555
C7 C6 1_555 1_555
H4 C7 1_555 1_555
C8 C1 1_555 1_555
C9 C1 1_555 1_555
H5 C9 1_555 1_555
H6 C9 1_555 1_555
H7 C9 1_555 1_555
C10 C1 1_555 1_555
C11 O3 1_555 1_555
H8 C11 1_555 1_555
C12 C11 1_555 1_555
H9 C12 1_555 1_555
C13 C12 1_555 1_555
H10 C13 1_555 1_555
H11 C13 1_555 1_555
H12 C13 1_555 1_555
C14 C12 1_555 1_555
H13 C14 1_555 1_555
H14 C14 1_555 1_555
H15 C14 1_555 1_555
C15 C11 1_555 1_555
H16 C15 1_555 1_555
C16 C15 1_555 1_555
H17 C16 1_555 1_555
H18 C16 1_555 1_555
H19 C16 1_555 1_555
C17 C15 1_555 1_555
H20 C17 1_555 1_555
H21 C17 1_555 1_555
H22 C17 1_555 1_555
Br2 C23 1_555 1_555
O4 C19 1_555 1_555
O5 C27 1_555 1_555
O6 C27 1_555 1_555
N2 H23 1_555 1_555
C18 N2 1_555 1_555
C19 N2 1_555 1_555
C20 C19 1_555 1_555
C21 C20 1_555 1_555
H24 C21 1_555 1_555
C22 C21 1_555 1_555
H25 C22 1_555 1_555
C23 C22 1_555 1_555
C24 C23 1_555 1_555
H26 C24 1_555 1_555
C25 C18 1_555 1_555
C26 C18 1_555 1_555
H27 C26 1_555 1_555
H28 C26 1_555 1_555
H29 C26 1_555 1_555
C27 C18 1_555 1_555
C28 O6 1_555 1_555
H30 C28 1_555 1_555
C29 C28 1_555 1_555
H31 C29 1_555 1_555
C30 C29 1_555 1_555
H32 C30 1_555 1_555
H33 C30 1_555 1_555
H34 C30 1_555 1_555
C31 C29 1_555 1_555
H35 C31 1_555 1_555
H36 C31 1_555 1_555
H37 C31 1_555 1_555
C32 C28 1_555 1_555
H38 C32 1_555 1_555
C33 C32 1_555 1_555
H39 C33 1_555 1_555
H40 C33 1_555 1_555
H41 C33 1_555 1_555
C34 C32 1_555 1_555
H42 C34 1_555 1_555
H43 C34 1_555 1_555
H44 C34 1_555 1_555
C3 C8 1_555 1_555
C7 C8 1_555 1_555
C20 C25 1_555 1_555
C24 C25 1_555 1_555

#END
