
#######################################################################
#
#                 Cambridge Crystallographic Data Centre
#                                CCDC 
#
#######################################################################
#
# If this CIF has been generated from an entry in the Cambridge 
# Structural Database, then it will include bibliographic, chemical, 
# crystal, experimental, refinement or atomic coordinate data resulting 
# from the CCDC's data processing and validation procedures.
#
#######################################################################

data_ZODLIP
_chemical_formula_moiety         'C20 H16 N4'
_chemical_name_systematic        
6-methyl-6-(pyridin-2-yl)-5,6-dihydrobenzimidazo[1,2-c]quinazoline
_symmetry_cell_setting           monoclinic
_symmetry_space_group_name_H-M   'P 21/n'
_symmetry_Int_Tables_number      14
_space_group_name_Hall           '-P 2yn'
loop_
_symmetry_equiv_pos_site_id
_symmetry_equiv_pos_as_xyz
1 x,y,z
2 1/2-x,1/2+y,1/2-z
3 -x,-y,-z
4 1/2+x,1/2-y,1/2+z
_cell_length_a                   6.8611(3)
_cell_length_b                   12.8045(6)
_cell_length_c                   18.2363(8)
_cell_angle_alpha                90
_cell_angle_beta                 91.863(3)
_cell_angle_gamma                90
_cell_volume                     1601.27
_exptl_crystal_colour            white
_exptl_crystal_description       Block
_cell_formula_units_Z            4
loop_
_atom_site_label
_atom_site_type_symbol
_atom_site_fract_x
_atom_site_fract_y
_atom_site_fract_z
C1 C 0.3328(2) 0.36915(14) 0.02433(9)
H1 H 0.3052 0.4350 0.0011
H2 H 0.3776 0.3204 -0.0114
H3 H 0.4319 0.3784 0.0621
N1 N 0.18840(18) 0.24297(10) 0.11132(6)
N2 N 0.06049(19) 0.41178(10) 0.09916(7)
H4 H 0.1053 0.4744 0.0969
N3 N 0.1178(2) 0.14387(10) 0.20907(7)
C2 C 0.0647(2) 0.22385(11) 0.16809(8)
C3 C 0.0066(2) 0.28729(11) -0.00351(7)
C4 C 0.3296(2) 0.16524(12) 0.11440(8)
N4 N -0.0765(2) 0.36226(10) -0.04464(7)
C5 C 0.1479(2) 0.32711(11) 0.05802(8)
C6 C -0.1016(2) 0.29169(13) 0.17753(8)
C7 C -0.0979(2) 0.38832(12) 0.14226(8)
C8 C 0.2828(3) 0.10574(13) 0.17681(9)
C9 C -0.2457(3) 0.46055(15) 0.15521(9)
H5 H -0.2422 0.5263 0.1336
C10 C -0.0286(3) 0.18315(13) -0.01692(9)
H6 H 0.0322 0.1322 0.0120
C11 C -0.1993(3) 0.33320(15) -0.09952(9)
H7 H -0.2579 0.3853 -0.1281
C12 C -0.2574(3) 0.26636(16) 0.22167(10)
H8 H -0.2616 0.2014 0.2443
C13 C -0.2437(3) 0.23181(14) -0.11597(9)
H9 H -0.3307 0.2152 -0.1544
C14 C 0.3992(3) 0.02152(14) 0.19794(11)
H10 H 0.3724 -0.0170 0.2397
C15 C 0.4849(3) 0.13929(15) 0.07173(11)
H11 H 0.5137 0.1775 0.0301
C16 C -0.1559(3) 0.15519(14) -0.07412(10)
H12 H -0.1816 0.0852 -0.0840
C17 C 0.5534(3) -0.00332(15) 0.15622(13)
H13 H 0.6321 -0.0597 0.1697
C18 C -0.3954(3) 0.4350(2) 0.19959(11)
H14 H -0.4921 0.4839 0.2083
C19 C 0.5963(3) 0.05366(17) 0.09377(13)
H15 H 0.7018 0.0339 0.0662
C20 C -0.4048(3) 0.3374(2) 0.23170(11)
H16 H -0.5103 0.3199 0.2600
loop_
_geom_bond_atom_site_label_1
_geom_bond_atom_site_label_2
_geom_bond_site_symmetry_1
_geom_bond_site_symmetry_2
C1 H1 1_555 1_555
H2 C1 1_555 1_555
H3 C1 1_555 1_555
N1 C2 1_555 1_555
N2 H4 1_555 1_555
N3 C2 1_555 1_555
C2 C6 1_555 1_555
C3 N4 1_555 1_555
C4 N1 1_555 1_555
N4 C11 1_555 1_555
C5 C1 1_555 1_555
C6 C7 1_555 1_555
C7 N2 1_555 1_555
C8 N3 1_555 1_555
C9 C7 1_555 1_555
H5 C9 1_555 1_555
C10 C3 1_555 1_555
H6 C10 1_555 1_555
C11 H7 1_555 1_555
C12 C6 1_555 1_555
H8 C12 1_555 1_555
C13 C11 1_555 1_555
H9 C13 1_555 1_555
C14 C8 1_555 1_555
H10 C14 1_555 1_555
C15 C4 1_555 1_555
H11 C15 1_555 1_555
C16 C10 1_555 1_555
H12 C16 1_555 1_555
C17 C14 1_555 1_555
H13 C17 1_555 1_555
C18 C9 1_555 1_555
H14 C18 1_555 1_555
C19 C15 1_555 1_555
H15 C19 1_555 1_555
C20 C12 1_555 1_555
H16 C20 1_555 1_555
N1 C5 1_555 1_555
N2 C5 1_555 1_555
C3 C5 1_555 1_555
C4 C8 1_555 1_555
C13 C16 1_555 1_555
C17 C19 1_555 1_555
C18 C20 1_555 1_555

#END
