
#######################################################################
#
#                 Cambridge Crystallographic Data Centre
#                                CCDC 
#
#######################################################################
#
# If this CIF has been generated from an entry in the Cambridge 
# Structural Database, then it will include bibliographic, chemical, 
# crystal, experimental, refinement or atomic coordinate data resulting 
# from the CCDC's data processing and validation procedures.
#
#######################################################################

data_ZODNEL
_chemical_formula_moiety         'C32 H40 S16,4(C1 S2)'
_chemical_name_systematic        
'4,4,10,10,15,15,20,20-Octamethyl-2,6,8,12,13,17,18,22-octathia-1,7(2,3,6,7)-ditetrathiafulvalena-cyclodocosaphane carbon disulfide solvate'
_symmetry_cell_setting           triclinic
_symmetry_space_group_name_H-M   'P -1'
_symmetry_Int_Tables_number      2
_space_group_name_Hall           '-P 1'
loop_
_symmetry_equiv_pos_site_id
_symmetry_equiv_pos_as_xyz
1 x,y,z
2 -x,-y,-z
_cell_length_a                   10.496(1)
_cell_length_b                   14.650(2)
_cell_length_c                   10.213(1)
_cell_angle_alpha                103.75(1)
_cell_angle_beta                 100.60(1)
_cell_angle_gamma                107.54(1)
_cell_volume                     1398.01
_exptl_crystal_colour            yellow
_chemical_melting_point          'above 300deg.C'
_cell_formula_units_Z            1
loop_
_atom_site_label
_atom_site_type_symbol
_atom_site_fract_x
_atom_site_fract_y
_atom_site_fract_z
S1 S 0.9296(3) 0.1164(2) 0.5232(2)
C1 C 0.7724(10) 0.0969(7) 0.4031(9)
S2 S 0.7287(3) 0.2046(2) 0.4265(2)
C2 C 0.8314(10) 0.2620(6) 0.6018(9)
C3 C 0.9238(10) 0.2226(7) 0.6475(8)
S3 S 0.7481(3) -0.0947(2) 0.26745(2)
C4 C 0.6973(10) 0.0108(7) 0.2975(9)
S4 S 0.5475(3) -0.0035(2) 0.1748(2)
C5 C 0.4936(11) -0.1346(6) 0.1098(8)
C6 C 0.5822(9) -0.1779(6) 0.1478(8)
S5 S 0.8152(3) 0.3721(2) 0.6962(3)
C7 C 0.6370(11) 0.3202(7) 0.7111(11)
C8 C 0.5766(12) 0.4022(7) 0.7523(11)
C9 C 0.4295(12) 0.3511(7) 0.7715(11)
S6 S 0.5643(3) -0.3034(2) 0.0786(2)
S7 S 1.0555(3) 0.2750(2) 0.8045(2)
C10 C 1.0200(11) 0.1787(8) 0.8939(10)
C11 C 0.9269(11) 0.1890(7) 0.9930(9)
C12 C 0.7824(10) 0.1729(8) 0.9060(9)
S8 S 0.3317(3) -0.1989(2) -0.0147(2)
C13 C 0.6754(16) 0.4850(9) 0.8888(15)
C14 C 0.5522(18) 0.4484(14) 0.6350(20)
C15 C 0.9891(14) 0.2966(10) 1.1021(12)
C16 C 0.9209(17) 0.1064(12) 1.0634(15)
S8A S 0.6683(3) 0.1989(2) 1.0147(2)
C5A C 0.5064(11) 0.1346(6) 0.8902(8)
S4A S 0.4525(3) 0.0035(2) 0.8252(2)
C4A C 0.3027(10) -0.0108(7) 0.7025(9)
C1A C 0.2276(10) -0.0969(7) 0.5969(9)
S1A S 0.0704(3) -0.1164(2) 0.4768(2)
C3A C 0.0762(10) -0.2226(7) 0.3525(8)
C2A C 0.1686(10) -0.2620(6) 0.3982(9)
S2A S 0.2713(3) -0.2046(2) 0.5735(2)
S5A S 0.1848(3) -0.3721(2) 0.3038(3)
C7A C 0.3630(11) -0.3202(7) 0.2889(11)
C8A C 0.4234(12) -0.4022(7) 0.2477(11)
C9A C 0.5705(12) -0.3511(7) 0.2285(11)
C13A C 0.3246(16) -0.4850(9) 0.1112(15)
C14A C 0.4478(18) -0.4484(14) 0.3650(20)
S7A S -0.0555(3) -0.2750(2) 0.1955(2)
C10A C -0.0200(11) -0.1787(8) 0.1061(10)
C11A C 0.0731(11) -0.1890(7) 0.0070(9)
C12A C 0.2176(10) -0.1729(8) 0.0940(9)
C15A C 0.0109(14) -0.2966(10) -0.1021(12)
C16A C 0.0791(17) -0.1064(12) -0.0634(15)
S3A S 0.2519(3) 0.0947(2) 0.73255(2)
C6A C 0.4178(9) 0.1779(6) 0.8522(8)
S6A S 0.4357(3) 0.3034(2) 0.9214(2)
S9 S 0.1263(6) 0.3698(4) 0.4772(4)
C17 C 0.1800(16) 0.4707(13) 0.6036(15)
S10 S 0.2407(8) 0.5615(4) 0.7265(6)
S11 S 0.6170(7) 0.7789(5) 0.7977(6)
C18 C 0.6714(15) 0.8378(12) 0.7047(14)
S12 S 0.7220(8) 0.8982(4) 0.6107(5)
loop_
_geom_bond_atom_site_label_1
_geom_bond_atom_site_label_2
_geom_bond_site_symmetry_1
_geom_bond_site_symmetry_2
S1 C1 1_555 1_555
C1 S2 1_555 1_555
S2 C2 1_555 1_555
C2 C3 1_555 1_555
C3 S1 1_555 1_555
S3 C4 1_555 1_555
C4 C1 1_555 1_555
S4 C4 1_555 1_555
C5 S4 1_555 1_555
C6 S3 1_555 1_555
S5 C2 1_555 1_555
C7 S5 1_555 1_555
C8 C7 1_555 1_555
C9 C8 1_555 1_555
S6 C6 1_555 1_555
S7 C3 1_555 1_555
C10 S7 1_555 1_555
C11 C10 1_555 1_555
C12 C11 1_555 1_555
S8 C5 1_555 1_555
C13 C8 1_555 1_555
C14 C8 1_555 1_555
C15 C11 1_555 1_555
C16 C11 1_555 1_555
S9 C17 1_555 1_555
C17 S10 1_555 1_555
S11 C18 1_555 1_555
C18 S12 1_555 1_555
S8A C12 1_555 1_555
C5A S8A 1_555 1_555
S4A C5A 1_555 1_555
C4A S4A 1_555 1_555
C1A C4A 1_555 1_555
S1A C1A 1_555 1_555
C3A S1A 1_555 1_555
C2A C3A 1_555 1_555
S2A C1A 1_555 1_555
S5A C2A 1_555 1_555
C7A S5A 1_555 1_555
C8A C7A 1_555 1_555
C9A S6 1_555 1_555
C13A C8A 1_555 1_555
C14A C8A 1_555 1_555
S7A C3A 1_555 1_555
C10A S7A 1_555 1_555
C11A C10A 1_555 1_555
C12A S8 1_555 1_555
C15A C11A 1_555 1_555
C16A C11A 1_555 1_555
S3A C4A 1_555 1_555
C6A C5A 1_555 1_555
S6A C9 1_555 1_555
C5 C6 1_555 1_555
C2A S2A 1_555 1_555
C8A C9A 1_555 1_555
C11A C12A 1_555 1_555
S3A C6A 1_555 1_555
C6A S6A 1_555 1_555

#END
