
#######################################################################
#
#                 Cambridge Crystallographic Data Centre
#                                CCDC 
#
#######################################################################
#
# If this CIF has been generated from an entry in the Cambridge 
# Structural Database, then it will include bibliographic, chemical, 
# crystal, experimental, refinement or atomic coordinate data resulting 
# from the CCDC's data processing and validation procedures.
#
#######################################################################

data_ZODZUP
_chemical_formula_moiety         'C26 H28'
_chemical_name_systematic        
1-(4-(Biphenyl-4-yl)buta-1,3-dien-2-yl)adamantane
_symmetry_cell_setting           monoclinic
_symmetry_space_group_name_H-M   'P 21/n'
_symmetry_Int_Tables_number      14
_space_group_name_Hall           '-P 2yn'
loop_
_symmetry_equiv_pos_site_id
_symmetry_equiv_pos_as_xyz
1 x,y,z
2 1/2-x,1/2+y,1/2-z
3 -x,-y,-z
4 1/2+x,1/2-y,1/2+z
_cell_length_a                   9.9322(4)
_cell_length_b                   8.9850(3)
_cell_length_c                   43.0557(19)
_cell_angle_alpha                90
_cell_angle_beta                 91.320(4)
_cell_angle_gamma                90
_cell_volume                     3841.31
_cell_formula_units_Z            8
loop_
_atom_site_label
_atom_site_type_symbol
_atom_site_fract_x
_atom_site_fract_y
_atom_site_fract_z
C1 C 0.3837(2) -0.0907(2) 0.06416(5)
H1 H 0.4685 -0.1488 0.0678
C2 C 0.13619(16) 0.03921(19) 0.08692(4)
H2 H 0.1416 0.0089 0.1090
H3 H 0.0516 0.0959 0.0835
C3 C 0.25727(15) 0.13870(17) 0.07946(3)
C4 C 0.1346(2) -0.0988(2) 0.06633(4)
H4 H 0.0557 -0.1622 0.0716
C5 C 0.2467(2) 0.1811(2) 0.04500(4)
H5 H 0.1637 0.2398 0.0411
H6 H 0.3247 0.2439 0.0396
C6 C 0.38585(16) 0.04672(19) 0.08473(4)
H7 H 0.4654 0.1083 0.0800
H8 H 0.3933 0.0162 0.1068
C7 C 0.2634(2) -0.1871(2) 0.07185(5)
H9 H 0.2700 -0.2191 0.0938
H10 H 0.2623 -0.2771 0.0586
C8 C 0.1228(2) -0.0533(2) 0.03235(4)
H11 H 0.0386 0.0036 0.0286
H12 H 0.1201 -0.1430 0.0190
C9 C 0.2439(2) 0.0422(2) 0.02451(4)
H13 H 0.2373 0.0726 0.0022
C10 C 0.3733(2) -0.0449(2) 0.03022(5)
H14 H 0.3736 -0.1345 0.0168
H15 H 0.4517 0.0174 0.0249
C11 C 0.26334(15) 0.27290(18) 0.10083(4)
C12 C 0.27517(16) 0.24290(18) 0.13444(4)
H16 H 0.2216 0.1650 0.1425
C13 C 0.35461(16) 0.31603(19) 0.15431(4)
H17 H 0.4106 0.3904 0.1457
C14 C 0.26202(19) 0.41279(19) 0.09070(4)
H18 H 0.2687 0.4927 0.1051
H19 H 0.2544 0.4328 0.0691
C15 C 0.39388(15) 0.26761(17) 0.25339(4)
C16 C 0.47348(16) 0.36504(18) 0.23670(4)
H20 H 0.5390 0.4236 0.2475
C17 C 0.45962(16) 0.37868(18) 0.20493(4)
H21 H 0.5156 0.4468 0.1944
C18 C 0.36628(16) 0.29567(18) 0.18801(4)
C19 C 0.28639(17) 0.1973(2) 0.20451(4)
H22 H 0.2213 0.1386 0.1936
C20 C 0.29980(17) 0.1836(2) 0.23632(4)
H23 H 0.2438 0.1155 0.2469
C21 C 0.41014(14) 0.25411(18) 0.28755(4)
C22 C 0.46172(15) 0.37207(19) 0.30520(4)
H24 H 0.4838 0.4629 0.2952
C23 C 0.48127(17) 0.3590(2) 0.33701(4)
H25 H 0.5170 0.4404 0.3486
C24 C 0.44911(17) 0.2284(2) 0.35192(4)
H26 H 0.4628 0.2194 0.3737
C25 C 0.39697(18) 0.1111(2) 0.33497(4)
H27 H 0.3744 0.0210 0.3452
C26 C 0.37719(16) 0.12349(19) 0.30312(4)
H28 H 0.3406 0.0418 0.2917
C27 C 0.8478(2) 1.0848(2) 0.43105(4)
H29 H 0.9117 1.1579 0.4219
C28 C 0.9000(2) 1.0386(3) 0.46314(5)
H30 H 0.9899 0.9920 0.4615
H31 H 0.9088 1.1271 0.4767
C29 C 0.80222(18) 0.9286(2) 0.47703(4)
H32 H 0.8362 0.8977 0.4981
C30 C 0.78957(17) 0.7915(2) 0.45616(4)
H33 H 0.7261 0.7199 0.4654
H34 H 0.8784 0.7423 0.4548
C31 C 0.73903(15) 0.83419(17) 0.42351(4)
C32 C 0.83750(18) 0.9473(2) 0.41010(4)
H35 H 0.9275 0.9010 0.4084
H36 H 0.8060 0.9773 0.3890
C33 C 0.7097(2) 1.1570(2) 0.43377(5)
H37 H 0.7169 1.2467 0.4470
H38 H 0.6758 1.1878 0.4130
C34 C 0.61279(19) 1.0471(2) 0.44784(4)
H39 H 0.5222 1.0945 0.4496
C35 C 0.60147(16) 0.91016(19) 0.42681(4)
H40 H 0.5665 0.9405 0.4060
H41 H 0.5369 0.8387 0.4357
C36 C 0.66480(19) 1.0014(2) 0.47985(4)
H42 H 0.6012 0.9306 0.4893
H43 H 0.6722 1.0899 0.4935
C37 C 0.72710(15) 0.70098(18) 0.40172(4)
C38 C 0.68945(16) 0.73342(19) 0.36907(4)
H44 H 0.6208 0.8052 0.3653
C39 C 0.74387(17) 0.67026(19) 0.34455(4)
H45 H 0.8149 0.6018 0.3487
C40 C 0.74833(18) 0.5612(2) 0.41050(5)
H46 H 0.7393 0.4828 0.3958
H47 H 0.7726 0.5395 0.4315
C41 C 0.63981(15) 0.72798(17) 0.24780(4)
C42 C 0.57187(17) 0.8057(2) 0.27065(4)
H48 H 0.5012 0.8717 0.2646
C43 C 0.60448(17) 0.7893(2) 0.30176(4)
H49 H 0.5560 0.8442 0.3167
C44 C 0.70707(16) 0.69379(18) 0.31176(4)
C45 C 0.77560(17) 0.61740(18) 0.28900(4)
H50 H 0.8470 0.5524 0.2950
C46 C 0.74259(16) 0.63341(18) 0.25780(4)
H51 H 0.7912 0.5786 0.2429
C47 C 0.60283(16) 0.74391(17) 0.21440(4)
C48 C 0.69683(17) 0.71645(19) 0.19146(4)
H52 H 0.7859 0.6879 0.1973
C49 C 0.66209(19) 0.7302(2) 0.16033(4)
H53 H 0.7273 0.7103 0.1451
C50 C 0.5339(2) 0.7725(2) 0.15124(4)
H54 H 0.5104 0.7819 0.1298
C51 C 0.43984(19) 0.8010(2) 0.17356(4)
H55 H 0.3512 0.8304 0.1675
C52 C 0.47405(17) 0.7869(2) 0.20465(4)
H56 H 0.4082 0.8070 0.2198
loop_
_geom_bond_atom_site_label_1
_geom_bond_atom_site_label_2
_geom_bond_site_symmetry_1
_geom_bond_site_symmetry_2
C1 H1 1_555 1_555
C2 H2 1_555 1_555
H3 C2 1_555 1_555
C3 C2 1_555 1_555
C4 C2 1_555 1_555
H4 C4 1_555 1_555
C5 C3 1_555 1_555
H5 C5 1_555 1_555
H6 C5 1_555 1_555
C6 C1 1_555 1_555
H7 C6 1_555 1_555
H8 C6 1_555 1_555
C7 C1 1_555 1_555
H9 C7 1_555 1_555
H10 C7 1_555 1_555
C8 C4 1_555 1_555
H11 C8 1_555 1_555
H12 C8 1_555 1_555
C9 C5 1_555 1_555
H13 C9 1_555 1_555
C10 C1 1_555 1_555
H14 C10 1_555 1_555
H15 C10 1_555 1_555
C11 C3 1_555 1_555
C12 C11 1_555 1_555
H16 C12 1_555 1_555
C13 C12 1_555 1_555
H17 C13 1_555 1_555
C14 C11 1_555 1_555
H18 C14 1_555 1_555
H19 C14 1_555 1_555
C15 C16 1_555 1_555
C16 H20 1_555 1_555
C17 C16 1_555 1_555
H21 C17 1_555 1_555
C18 C13 1_555 1_555
C19 C18 1_555 1_555
H22 C19 1_555 1_555
C20 C15 1_555 1_555
H23 C20 1_555 1_555
C21 C15 1_555 1_555
C22 C21 1_555 1_555
H24 C22 1_555 1_555
C23 C22 1_555 1_555
H25 C23 1_555 1_555
C24 C23 1_555 1_555
H26 C24 1_555 1_555
C25 C24 1_555 1_555
H27 C25 1_555 1_555
C26 C21 1_555 1_555
H28 C26 1_555 1_555
C27 H29 1_555 1_555
C28 C27 1_555 1_555
H30 C28 1_555 1_555
H31 C28 1_555 1_555
C29 C28 1_555 1_555
H32 C29 1_555 1_555
C30 C29 1_555 1_555
H33 C30 1_555 1_555
H34 C30 1_555 1_555
C31 C30 1_555 1_555
C32 C27 1_555 1_555
H35 C32 1_555 1_555
H36 C32 1_555 1_555
C33 C27 1_555 1_555
H37 C33 1_555 1_555
H38 C33 1_555 1_555
C34 C33 1_555 1_555
H39 C34 1_555 1_555
C35 C31 1_555 1_555
H40 C35 1_555 1_555
H41 C35 1_555 1_555
C36 C29 1_555 1_555
H42 C36 1_555 1_555
H43 C36 1_555 1_555
C37 C31 1_555 1_555
C38 C37 1_555 1_555
H44 C38 1_555 1_555
C39 C38 1_555 1_555
H45 C39 1_555 1_555
C40 C37 1_555 1_555
H46 C40 1_555 1_555
H47 C40 1_555 1_555
C41 C42 1_555 1_555
C42 H48 1_555 1_555
C43 C42 1_555 1_555
H49 C43 1_555 1_555
C44 C39 1_555 1_555
C45 C44 1_555 1_555
H50 C45 1_555 1_555
C46 C41 1_555 1_555
H51 C46 1_555 1_555
C47 C41 1_555 1_555
C48 C47 1_555 1_555
H52 C48 1_555 1_555
C49 C48 1_555 1_555
H53 C49 1_555 1_555
C50 C49 1_555 1_555
H54 C50 1_555 1_555
C51 C50 1_555 1_555
H55 C51 1_555 1_555
C52 C47 1_555 1_555
H56 C52 1_555 1_555
C3 C6 1_555 1_555
C4 C7 1_555 1_555
C8 C9 1_555 1_555
C9 C10 1_555 1_555
C17 C18 1_555 1_555
C19 C20 1_555 1_555
C25 C26 1_555 1_555
C31 C32 1_555 1_555
C34 C35 1_555 1_555
C34 C36 1_555 1_555
C43 C44 1_555 1_555
C45 C46 1_555 1_555
C51 C52 1_555 1_555

#END
