
#######################################################################
#
#                 Cambridge Crystallographic Data Centre
#                                CCDC 
#
#######################################################################
#
# If this CIF has been generated from an entry in the Cambridge 
# Structural Database, then it will include bibliographic, chemical, 
# crystal, experimental, refinement or atomic coordinate data resulting 
# from the CCDC's data processing and validation procedures.
#
#######################################################################

data_ZOFBAZ
_chemical_formula_moiety         'C14 H22 Br1 N1 O3 S1'
_chemical_name_systematic        
2-Bromo-1-(10,10-dimethyl-3,3-dioxido-3-thia-4-azatricyclo[5.2.1.0^1,5^]dec-4-yl)butan-1-one
_symmetry_cell_setting           orthorhombic
_symmetry_space_group_name_H-M   'P 21 21 2'
_symmetry_Int_Tables_number      18
_space_group_name_Hall           'P 2 2ab'
loop_
_symmetry_equiv_pos_site_id
_symmetry_equiv_pos_as_xyz
1 x,y,z
2 -x,-y,z
3 1/2-x,1/2+y,-z
4 1/2+x,1/2-y,-z
_cell_length_a                   14.7756(8)
_cell_length_b                   14.178(3)
_cell_length_c                   7.7793(11)
_cell_angle_alpha                90
_cell_angle_beta                 90
_cell_angle_gamma                90
_cell_volume                     1629.67
_exptl_crystal_colour            colorless
_cell_formula_units_Z            4
loop_
_atom_site_label
_atom_site_type_symbol
_atom_site_fract_x
_atom_site_fract_y
_atom_site_fract_z
Br1 Br 0.16145(6) 0.88439(7) 0.07088(12)
S1 S 0.35441(9) 0.93279(8) 0.44866(16)
N1 N 0.3727(3) 0.8678(2) 0.2709(4)
O1 O 0.3864(4) 0.8653(3) -0.0161(5)
O2 O 0.3898(3) 1.0248(2) 0.4221(5)
O3 O 0.2616(3) 0.9263(3) 0.4965(5)
C1 C 0.2756(5) 1.0287(4) -0.0613(9)
H1 H 0.2194 1.0664 -0.0698
H2 H 0.2813 0.9907 -0.1675
C2 C 0.2694(4) 0.9638(4) 0.0914(6)
H3 H 0.2645 1.0026 0.1984
C3 C 0.3470(4) 0.8963(3) 0.1100(6)
C4 C 0.4271(4) 0.8651(3) 0.5832(6)
H4 H 0.4815 0.9022 0.6137
H5 H 0.3953 0.8477 0.6906
C5 C 0.4540(3) 0.7774(3) 0.4852(6)
C6 C 0.5499(4) 0.7401(3) 0.5123(7)
H6 H 0.5637 0.7325 0.6361
H7 H 0.5954 0.7826 0.4599
C7 C 0.5472(4) 0.6434(4) 0.4191(8)
H8 H 0.5640 0.5914 0.4980
H9 H 0.5885 0.6427 0.3188
C8 C 0.4468(4) 0.6351(3) 0.3619(7)
H10 H 0.4259 0.5690 0.3410
C9 C 0.4335(5) 0.7021(3) 0.2083(7)
H11 H 0.4791 0.6905 0.1175
H12 H 0.3721 0.6956 0.1584
C10 C 0.4466(3) 0.7994(3) 0.2916(6)
H13 H 0.5046 0.8279 0.2503
C11 C 0.3958(4) 0.6867(3) 0.5058(7)
C12 C 0.4071(5) 0.6402(5) 0.6838(8)
H14 H 0.3760 0.6782 0.7707
H15 H 0.4716 0.6361 0.7122
H16 H 0.3809 0.5767 0.6815
C13 C 0.2937(4) 0.6967(4) 0.4756(11)
H17 H 0.2658 0.7270 0.5756
H18 H 0.2670 0.6341 0.4587
H19 H 0.2832 0.7354 0.3731
C14 C 0.3564(7) 1.0944(7) -0.0459(14)
H20 H 0.3665 1.1261 -0.1562
H21 H 0.4102 1.0579 -0.0149
H22 H 0.3444 1.1417 0.0431
loop_
_geom_bond_atom_site_label_1
_geom_bond_atom_site_label_2
_geom_bond_site_symmetry_1
_geom_bond_site_symmetry_2
Br1 C2 1_555 1_555
S1 N1 1_555 1_555
N1 C3 1_555 1_555
O1 C3 1_555 1_555
O2 S1 1_555 1_555
O3 S1 1_555 1_555
C1 H1 1_555 1_555
H2 C1 1_555 1_555
C2 C1 1_555 1_555
H3 C2 1_555 1_555
C3 C2 1_555 1_555
C4 S1 1_555 1_555
H4 C4 1_555 1_555
H5 C4 1_555 1_555
C5 C4 1_555 1_555
C6 C5 1_555 1_555
H6 C6 1_555 1_555
H7 C6 1_555 1_555
C7 C6 1_555 1_555
H8 C7 1_555 1_555
H9 C7 1_555 1_555
C8 C7 1_555 1_555
H10 C8 1_555 1_555
C9 C8 1_555 1_555
H11 C9 1_555 1_555
H12 C9 1_555 1_555
C10 N1 1_555 1_555
H13 C10 1_555 1_555
C11 C5 1_555 1_555
C12 C11 1_555 1_555
H14 C12 1_555 1_555
H15 C12 1_555 1_555
H16 C12 1_555 1_555
C13 C11 1_555 1_555
H17 C13 1_555 1_555
H18 C13 1_555 1_555
H19 C13 1_555 1_555
C14 C1 1_555 1_555
H20 C14 1_555 1_555
H21 C14 1_555 1_555
H22 C14 1_555 1_555
C5 C10 1_555 1_555
C8 C11 1_555 1_555
C9 C10 1_555 1_555

#END
