
#######################################################################
#
#                 Cambridge Crystallographic Data Centre
#                                CCDC 
#
#######################################################################
#
# If this CIF has been generated from an entry in the Cambridge 
# Structural Database, then it will include bibliographic, chemical, 
# crystal, experimental, refinement or atomic coordinate data resulting 
# from the CCDC's data processing and validation procedures.
#
#######################################################################

data_ZOFWAU
_chemical_formula_moiety         'C36 H38 N4 O6'
_chemical_name_systematic        
N,N'-(1,3-Phenylenebis(methylene))bis(7-(diethylamino)-2-oxo-2H-chromene-3-carboxamide)
_symmetry_cell_setting           monoclinic
_symmetry_space_group_name_H-M   'C 2/c'
_symmetry_Int_Tables_number      15
_space_group_name_Hall           '-C 2yn'
loop_
_symmetry_equiv_pos_site_id
_symmetry_equiv_pos_as_xyz
1 x,y,z
2 -x,y,1/2-z
3 1/2+x,1/2+y,z
4 1/2-x,1/2+y,1/2-z
5 -x,-y,-z
6 x,-y,1/2+z
7 1/2-x,1/2-y,-z
8 1/2+x,1/2-y,1/2+z
_cell_length_a                   16.8540(18)
_cell_length_b                   7.0377(8)
_cell_length_c                   26.403(3)
_cell_angle_alpha                90
_cell_angle_beta                 94.230(8)
_cell_angle_gamma                90
_cell_volume                     3123.22
_exptl_crystal_colour            yellow
_exptl_crystal_description       block
_cell_formula_units_Z            4
loop_
_atom_site_label
_atom_site_type_symbol
_atom_site_fract_x
_atom_site_fract_y
_atom_site_fract_z
O1 O -0.05018(11) 0.2839(3) -0.11787(6)
O2 O 0.08219(10) 0.7570(2) -0.06021(6)
O3 O 0.14538(8) 0.57900(19) -0.00285(5)
N1 N -0.02693(10) 0.5978(3) -0.12768(6)
H1 H -0.0014 0.6953 -0.1155
N2 N 0.29844(11) 0.2376(2) 0.12481(6)
C1 C 0.0000 0.6377(4) -0.2500
H2 H 0.0000 0.5056 -0.2500
C2 C -0.03902(12) 0.7323(3) -0.21319(7)
C3 C -0.03764(15) 0.9274(4) -0.21326(10)
H3 H -0.0622 0.9945 -0.1884
C4 C 0.0000 1.0243(5) -0.2500
H4 H 0.0000 1.1564 -0.2500
C5 C -0.07958(13) 0.6218(4) -0.17334(8)
H5 H -0.1272 0.6887 -0.1650
H6 H -0.0954 0.4981 -0.1868
C6 C -0.01629(12) 0.4315(4) -0.10383(8)
C7 C 0.04342(11) 0.4306(3) -0.05857(7)
C8 C 0.08807(13) 0.5973(3) -0.04252(7)
C9 C 0.15989(11) 0.4093(3) 0.02236(7)
C10 C 0.11501(12) 0.2490(3) 0.00838(7)
C11 C 0.05784(12) 0.2652(3) -0.03307(8)
H7 H 0.0287 0.1580 -0.0434
C12 C 0.13316(13) 0.0833(3) 0.03682(8)
H8 H 0.1046 -0.0273 0.0289
C13 C 0.19072(13) 0.0800(3) 0.07519(8)
H9 H 0.1999 -0.0312 0.0937
C14 C 0.23740(12) 0.2431(3) 0.08770(7)
C15 C 0.21937(12) 0.4097(3) 0.06023(7)
H10 H 0.2479 0.5204 0.0678
C16 C 0.31886(14) 0.0680(3) 0.15457(8)
H11 H 0.3759 0.0675 0.1629
H12 H 0.3061 -0.0426 0.1336
C17 C 0.27829(18) 0.0495(4) 0.20229(10)
H13 H 0.2952 -0.0656 0.2194
H14 H 0.2218 0.0457 0.1945
H15 H 0.2916 0.1563 0.2239
C18 C 0.34825(14) 0.4050(3) 0.13607(8)
H16 H 0.3571 0.4689 0.1044
H17 H 0.3996 0.3634 0.1511
C19 C 0.31364(16) 0.5442(3) 0.17113(9)
H18 H 0.3494 0.6494 0.1769
H19 H 0.3057 0.4832 0.2029
H20 H 0.2635 0.5893 0.1561
O1A O 0.05018(11) 0.2839(3) -0.38213(6)
O2A O -0.08219(10) 0.7570(2) -0.43979(6)
O3A O -0.14538(8) 0.57900(19) -0.49715(5)
N1A N 0.02693(10) 0.5978(3) -0.37232(6)
H1A H 0.0014 0.6953 -0.3845
N2A N -0.29844(11) 0.2376(2) -0.62481(6)
C2A C 0.03902(12) 0.7323(3) -0.28681(7)
C3A C 0.03764(15) 0.9274(4) -0.28674(10)
H3A H 0.0622 0.9945 -0.3116
C5A C 0.07958(13) 0.6218(4) -0.32666(8)
H5A H 0.1272 0.6887 -0.3350
H6A H 0.0954 0.4981 -0.3132
C6A C 0.01629(12) 0.4315(4) -0.39617(8)
C7A C -0.04342(11) 0.4306(3) -0.44143(7)
C8A C -0.08807(13) 0.5973(3) -0.45748(7)
C9A C -0.15989(11) 0.4093(3) -0.52236(7)
C10A C -0.11501(12) 0.2490(3) -0.50838(7)
C11A C -0.05784(12) 0.2652(3) -0.46693(8)
H7A H -0.0287 0.1580 -0.4566
C12A C -0.13316(13) 0.0833(3) -0.53682(8)
H8A H -0.1046 -0.0273 -0.5289
C13A C -0.19072(13) 0.0800(3) -0.57519(8)
H9A H -0.1999 -0.0312 -0.5937
C14A C -0.23740(12) 0.2431(3) -0.58770(7)
C15A C -0.21937(12) 0.4097(3) -0.56023(7)
H10A H -0.2479 0.5204 -0.5678
C16A C -0.31886(14) 0.0680(3) -0.65457(8)
H11A H -0.3759 0.0675 -0.6629
H12A H -0.3061 -0.0426 -0.6336
C17A C -0.27829(18) 0.0495(4) -0.70229(10)
H13A H -0.2952 -0.0656 -0.7194
H14A H -0.2218 0.0457 -0.6945
H15A H -0.2916 0.1563 -0.7239
C18A C -0.34825(14) 0.4050(3) -0.63607(8)
H16A H -0.3571 0.4689 -0.6044
H17A H -0.3996 0.3634 -0.6511
C19A C -0.31364(16) 0.5442(3) -0.67113(9)
H18A H -0.3494 0.6494 -0.6769
H19A H -0.3057 0.4832 -0.7029
H20A H -0.2635 0.5893 -0.6561
loop_
_geom_bond_atom_site_label_1
_geom_bond_atom_site_label_2
_geom_bond_site_symmetry_1
_geom_bond_site_symmetry_2
O1 C6 1_555 1_555
O2 C8 1_555 1_555
O3 C8 1_555 1_555
N1 H1 1_555 1_555
N2 C14 1_555 1_555
C1 H2 1_555 1_555
C2 C1 1_555 1_555
C3 C2 1_555 1_555
H3 C3 1_555 1_555
C4 C3 1_555 1_555
H4 C4 1_555 1_555
C5 N1 1_555 1_555
H5 C5 1_555 1_555
H6 C5 1_555 1_555
C6 N1 1_555 1_555
C7 C6 1_555 1_555
C8 C7 1_555 1_555
C9 O3 1_555 1_555
C10 C9 1_555 1_555
C11 C7 1_555 1_555
H7 C11 1_555 1_555
C12 C10 1_555 1_555
H8 C12 1_555 1_555
C13 C12 1_555 1_555
H9 C13 1_555 1_555
C14 C13 1_555 1_555
C15 C9 1_555 1_555
H10 C15 1_555 1_555
C16 N2 1_555 1_555
H11 C16 1_555 1_555
H12 C16 1_555 1_555
C17 C16 1_555 1_555
H13 C17 1_555 1_555
H14 C17 1_555 1_555
H15 C17 1_555 1_555
C18 N2 1_555 1_555
H16 C18 1_555 1_555
H17 C18 1_555 1_555
C19 C18 1_555 1_555
H18 C19 1_555 1_555
H19 C19 1_555 1_555
H20 C19 1_555 1_555
O1A C6A 1_555 1_555
O2A C8A 1_555 1_555
O3A C8A 1_555 1_555
N1A H1A 1_555 1_555
N2A C14A 1_555 1_555
C2A C1 1_555 1_555
C3A C4 1_555 1_555
H3A C3A 1_555 1_555
C5A N1A 1_555 1_555
H5A C5A 1_555 1_555
H6A C5A 1_555 1_555
C6A N1A 1_555 1_555
C7A C6A 1_555 1_555
C8A C7A 1_555 1_555
C9A O3A 1_555 1_555
C10A C9A 1_555 1_555
C11A C7A 1_555 1_555
H7A C11A 1_555 1_555
C12A C10A 1_555 1_555
H8A C12A 1_555 1_555
C13A C12A 1_555 1_555
H9A C13A 1_555 1_555
C14A C13A 1_555 1_555
C15A C9A 1_555 1_555
H10A C15A 1_555 1_555
C16A N2A 1_555 1_555
H11A C16A 1_555 1_555
H12A C16A 1_555 1_555
C17A C16A 1_555 1_555
H13A C17A 1_555 1_555
H14A C17A 1_555 1_555
H15A C17A 1_555 1_555
C18A N2A 1_555 1_555
H16A C18A 1_555 1_555
H17A C18A 1_555 1_555
C19A C18A 1_555 1_555
H18A C19A 1_555 1_555
H19A C19A 1_555 1_555
H20A C19A 1_555 1_555
C2 C5 1_555 1_555
C10 C11 1_555 1_555
C14 C15 1_555 1_555
C2A C3A 1_555 1_555
C2A C5A 1_555 1_555
C10A C11A 1_555 1_555
C14A C15A 1_555 1_555

#END
