
#######################################################################
#
#                 Cambridge Crystallographic Data Centre
#                                CCDC 
#
#######################################################################
#
# If this CIF has been generated from an entry in the Cambridge 
# Structural Database, then it will include bibliographic, chemical, 
# crystal, experimental, refinement or atomic coordinate data resulting 
# from the CCDC's data processing and validation procedures.
#
#######################################################################

data_ZOFXID
_chemical_formula_moiety         'C37 H34 Cl2 F12 N2 O3 Si1'
_chemical_name_systematic        
2-(bis(3,5-bis(trifluoromethyl)phenyl)((trimethylsilyl)oxy)methyl)-1-(5-(2,4-dichlorophenyl)-3-methyl-6-nitrocyclohex-2-en-1-yl)pyrrolidine
_symmetry_cell_setting           orthorhombic
_symmetry_space_group_name_H-M   'C 2 2 21'
_symmetry_Int_Tables_number      20
_space_group_name_Hall           'C 2n 2'
loop_
_symmetry_equiv_pos_site_id
_symmetry_equiv_pos_as_xyz
1 x,y,z
2 -x,-y,1/2+z
3 x,-y,-z
4 -x,y,1/2-z
5 1/2+x,1/2+y,z
6 1/2-x,1/2-y,1/2+z
7 1/2+x,1/2-y,-z
8 1/2-x,1/2+y,1/2-z
_cell_length_a                   10.8393(5)
_cell_length_b                   16.7856(3)
_cell_length_c                   42.689(2)
_cell_angle_alpha                90
_cell_angle_beta                 90
_cell_angle_gamma                90
_cell_volume                     7767.01
_exptl_crystal_colour            colorless
_exptl_crystal_description       prism
_cell_formula_units_Z            8
loop_
_atom_site_label
_atom_site_type_symbol
_atom_site_fract_x
_atom_site_fract_y
_atom_site_fract_z
Cl1 Cl 0.2489(2) 0.39547(10) -0.01348(5)
Cl2 Cl -0.0893(2) 0.4080(2) -0.10460(5)
Si1 Si 0.05260(16) 0.47359(11) 0.18298(4)
F1 F 0.5732(4) 0.3112(3) 0.17825(12)
F2 F 0.4984(7) 0.2034(4) 0.17081(17)
F3 F 0.4266(4) 0.2727(6) 0.20635(12)
F4 F 0.3246(6) 0.4161(4) 0.05679(14)
F5 F 0.4876(6) 0.4147(5) 0.07325(17)
F6 F 0.3745(10) 0.5038(3) 0.08549(16)
F7 F -0.3221(4) 0.1761(3) 0.23602(10)
F8 F -0.1780(4) 0.2184(3) 0.26614(9)
F9 F -0.2778(3) 0.2996(2) 0.23717(9)
F10 F 0.1144(7) 0.0334(3) 0.15545(15)
F11 F -0.0411(4) -0.0134(3) 0.17941(17)
F12 F 0.1132(5) 0.0199(3) 0.20361(15)
O1 O 0.0443(5) 0.4034(3) 0.04592(11)
O2 O -0.1506(5) 0.3725(3) 0.04125(13)
O3 O -0.0125(4) 0.4059(2) 0.15960(9)
N1 N -0.0427(7) 0.3554(3) 0.04249(13)
N2 N -0.0374(4) 0.2479(3) 0.10000(11)
C1 C 0.1143(6) 0.3561(4) -0.02956(17)
C2 C 0.0733(8) 0.3921(5) -0.05672(18)
H1 H 0.1170 0.4358 -0.0655
C3 C -0.0318(8) 0.3637(6) -0.07089(18)
C4 C -0.0943(7) 0.2970(6) -0.05851(18)
H2 H -0.1639 0.2752 -0.0690
C5 C -0.0523(6) 0.2641(5) -0.03095(16)
H3 H -0.0958 0.2206 -0.0220
C6 C 0.0544(6) 0.2937(4) -0.01551(15)
C7 C 0.0918(6) 0.2555(4) 0.01535(15)
H4 H 0.1701 0.2813 0.0225
C8 C -0.0065(5) 0.2682(4) 0.04102(14)
H5 H -0.0811 0.2356 0.0359
C9 C 0.0448(6) 0.2422(4) 0.07330(14)
H6 H 0.1173 0.2772 0.0779
C10 C -0.0560(6) 0.3240(4) 0.11580(14)
H7 H -0.0332 0.3685 0.1013
C11 C 0.0234(5) 0.3298(3) 0.14663(14)
C12 C -0.0809(6) 0.5302(4) 0.19736(16)
H8 H -0.1226 0.5558 0.1797
H9 H -0.0529 0.5709 0.2122
H10 H -0.1383 0.4939 0.2079
C13 C 0.1599(6) 0.5384(4) 0.16119(16)
H11 H 0.2326 0.5075 0.1549
H12 H 0.1856 0.5828 0.1746
H13 H 0.1186 0.5592 0.1425
C14 C 0.1360(7) 0.4289(4) 0.21682(16)
H14 H 0.0868 0.3853 0.2256
H15 H 0.1494 0.4696 0.2329
H16 H 0.2158 0.4081 0.2098
C15 C 0.1643(6) 0.3336(4) 0.14010(15)
C16 C 0.2505(6) 0.3006(4) 0.16044(15)
H17 H 0.2222 0.2714 0.1781
C17 C 0.3757(6) 0.3089(4) 0.15580(15)
C18 C 0.4656(8) 0.2743(5) 0.1789(2)
C19 C 0.4190(6) 0.3516(4) 0.13004(15)
H18 H 0.5052 0.3576 0.1266
C20 C 0.3351(6) 0.3853(4) 0.10951(15)
C21 C 0.3805(7) 0.4342(6) 0.08370(19)
C22 C 0.2075(6) 0.3788(4) 0.11477(16)
H19 H 0.1508 0.4048 0.1012
C23 C -0.0119(6) 0.2636(4) 0.16883(15)
C24 C -0.0948(5) 0.2762(4) 0.19303(15)
H20 H -0.1243 0.3287 0.1967
C25 C -0.1372(6) 0.2136(4) 0.21259(15)
C26 C -0.2272(7) 0.2269(5) 0.23735(15)
C27 C -0.0929(6) 0.1380(4) 0.20735(16)
H21 H -0.1210 0.0950 0.2200
C28 C -0.0070(6) 0.1240(4) 0.18362(18)
C29 C 0.0410(7) 0.0425(4) 0.17956(19)
C30 C 0.0317(6) 0.1872(4) 0.16419(15)
H22 H 0.0885 0.1772 0.1477
C31 C -0.1970(5) 0.3274(4) 0.12285(15)
H23 H -0.2122 0.3490 0.1441
H24 H -0.2399 0.3615 0.1074
C32 C -0.2413(7) 0.2422(4) 0.12051(19)
H25 H -0.2336 0.2147 0.1409
H26 H -0.3284 0.2401 0.1136
C33 C -0.1575(6) 0.2052(4) 0.09644(15)
H27 H -0.1473 0.1475 0.1004
H28 H -0.1911 0.2127 0.0751
C34 C 0.0940(5) 0.1577(4) 0.06959(15)
H29 H 0.1013 0.1268 0.0881
C35 C 0.1276(6) 0.1230(4) 0.04296(17)
C36 C 0.1157(6) 0.1654(4) 0.01199(16)
H30 H 0.0471 0.1412 0.0000
H31 H 0.1925 0.1573 -0.0002
C37 C 0.1802(6) 0.0417(4) 0.04209(16)
H32 H 0.1977 0.0238 0.0635
H33 H 0.2567 0.0421 0.0299
H34 H 0.1208 0.0053 0.0323
loop_
_geom_bond_atom_site_label_1
_geom_bond_atom_site_label_2
_geom_bond_site_symmetry_1
_geom_bond_site_symmetry_2
Cl1 C1 1_555 1_555
Cl2 C3 1_555 1_555
Si1 O3 1_555 1_555
F1 C18 1_555 1_555
F2 C18 1_555 1_555
F3 C18 1_555 1_555
F4 C21 1_555 1_555
F5 C21 1_555 1_555
F6 C21 1_555 1_555
F7 C26 1_555 1_555
F8 C26 1_555 1_555
F9 C26 1_555 1_555
F10 C29 1_555 1_555
F11 C29 1_555 1_555
F12 C29 1_555 1_555
O1 N1 1_555 1_555
O2 N1 1_555 1_555
O3 C11 1_555 1_555
N1 C8 1_555 1_555
N2 C9 1_555 1_555
C1 C2 1_555 1_555
C2 H1 1_555 1_555
C3 C2 1_555 1_555
C4 C3 1_555 1_555
H2 C4 1_555 1_555
C5 C4 1_555 1_555
H3 C5 1_555 1_555
C6 C1 1_555 1_555
C7 C6 1_555 1_555
H4 C7 1_555 1_555
C8 C7 1_555 1_555
H5 C8 1_555 1_555
C9 C8 1_555 1_555
H6 C9 1_555 1_555
C10 N2 1_555 1_555
H7 C10 1_555 1_555
C11 C10 1_555 1_555
C12 Si1 1_555 1_555
H8 C12 1_555 1_555
H9 C12 1_555 1_555
H10 C12 1_555 1_555
C13 Si1 1_555 1_555
H11 C13 1_555 1_555
H12 C13 1_555 1_555
H13 C13 1_555 1_555
C14 Si1 1_555 1_555
H14 C14 1_555 1_555
H15 C14 1_555 1_555
H16 C14 1_555 1_555
C15 C11 1_555 1_555
C16 C15 1_555 1_555
H17 C16 1_555 1_555
C17 C16 1_555 1_555
C18 C17 1_555 1_555
C19 C17 1_555 1_555
H18 C19 1_555 1_555
C20 C19 1_555 1_555
C21 C20 1_555 1_555
C22 C15 1_555 1_555
H19 C22 1_555 1_555
C23 C11 1_555 1_555
C24 C23 1_555 1_555
H20 C24 1_555 1_555
C25 C24 1_555 1_555
C26 C25 1_555 1_555
C27 C25 1_555 1_555
H21 C27 1_555 1_555
C28 C27 1_555 1_555
C29 C28 1_555 1_555
C30 C23 1_555 1_555
H22 C30 1_555 1_555
C31 C10 1_555 1_555
H23 C31 1_555 1_555
H24 C31 1_555 1_555
C32 C31 1_555 1_555
H25 C32 1_555 1_555
H26 C32 1_555 1_555
C33 N2 1_555 1_555
H27 C33 1_555 1_555
H28 C33 1_555 1_555
C34 C9 1_555 1_555
H29 C34 1_555 1_555
C35 C34 1_555 1_555
C36 C7 1_555 1_555
H30 C36 1_555 1_555
H31 C36 1_555 1_555
C37 C35 1_555 1_555
H32 C37 1_555 1_555
H33 C37 1_555 1_555
H34 C37 1_555 1_555
C5 C6 1_555 1_555
C20 C22 1_555 1_555
C28 C30 1_555 1_555
C32 C33 1_555 1_555
C35 C36 1_555 1_555

#END
