
#######################################################################
#
#                 Cambridge Crystallographic Data Centre
#                                CCDC 
#
#######################################################################
#
# If this CIF has been generated from an entry in the Cambridge 
# Structural Database, then it will include bibliographic, chemical, 
# crystal, experimental, refinement or atomic coordinate data resulting 
# from the CCDC's data processing and validation procedures.
#
#######################################################################

data_ZOGCAB
_chemical_formula_moiety         'C16 H13 Br1 N2 O1'
_chemical_name_systematic        
3-(4-bromophenyl)-5-phenyl-4,5-dihydro-1H-pyrazole-1-carbaldehyde
_symmetry_cell_setting           monoclinic
_symmetry_space_group_name_H-M   'C c'
_symmetry_Int_Tables_number      9
_space_group_name_Hall           'C -2yc'
loop_
_symmetry_equiv_pos_site_id
_symmetry_equiv_pos_as_xyz
1 x,y,z
2 x,-y,1/2+z
3 1/2+x,1/2+y,z
4 1/2+x,1/2-y,1/2+z
_cell_length_a                   12.069(5)
_cell_length_b                   6.397(5)
_cell_length_c                   18.421(5)
_cell_angle_alpha                90
_cell_angle_beta                 101.416(5)
_cell_angle_gamma                90
_cell_volume                     1394.06
_exptl_crystal_colour            colorless
_exptl_crystal_description       block
_cell_formula_units_Z            4
loop_
_atom_site_label
_atom_site_type_symbol
_atom_site_fract_x
_atom_site_fract_y
_atom_site_fract_z
Br1 Br 1.00030(18) -0.99724(14) 0.25139(14)
O1 O 0.6913(6) 0.3580(10) 0.4441(4)
N1 N 0.7727(7) 0.0508(12) 0.4266(5)
N2 N 0.7848(5) -0.1050(12) 0.3758(4)
C1 C 0.7257(9) 0.1189(17) 0.6024(6)
H1 H 0.7603 0.2493 0.6046
C2 C 0.6485(11) 0.084(2) 0.6454(7)
H2 H 0.6294 0.1906 0.6750
C3 C 0.6011(11) -0.098(3) 0.6454(8)
H3 H 0.5496 -0.1205 0.6761
C4 C 0.6244(8) -0.2571(19) 0.6021(5)
H4 H 0.5892 -0.3860 0.6032
C5 C 0.7019(8) -0.2260(15) 0.5558(5)
H5 H 0.7177 -0.3340 0.5256
C6 C 0.7557(8) -0.0322(13) 0.5548(6)
C7 C 0.8357(7) 0.0120(13) 0.5017(6)
H6 H 0.8824 0.1342 0.5191
C8 C 0.9120(7) -0.1699(15) 0.4882(5)
H7 H 0.9897 -0.1251 0.4919
H8 H 0.9094 -0.2839 0.5226
C9 C 0.8593(7) -0.2300(12) 0.4109(5)
C10 C 0.7051(7) 0.2137(14) 0.4036(6)
H9 H 0.6669 0.2169 0.3545
C11 C 0.8928(7) -0.4136(17) 0.3721(6)
C12 C 0.9749(7) -0.5510(14) 0.4093(6)
H10 H 1.0082 -0.5258 0.4585
C13 C 1.0066(6) -0.7240(13) 0.3734(5)
H11 H 1.0618 -0.8147 0.3978
C14 C 0.9566(7) -0.7589(14) 0.3027(5)
C15 C 0.8705(9) -0.6307(16) 0.2652(6)
H12 H 0.8340 -0.6625 0.2171
C16 C 0.8412(9) -0.4595(16) 0.3000(6)
H13 H 0.7853 -0.3709 0.2750
loop_
_geom_bond_atom_site_label_1
_geom_bond_atom_site_label_2
_geom_bond_site_symmetry_1
_geom_bond_site_symmetry_2
Br1 C14 1_555 1_555
O1 C10 1_555 1_555
N1 N2 1_555 1_555
N2 C9 1_555 1_555
C1 H1 1_555 1_555
C2 C1 1_555 1_555
H2 C2 1_555 1_555
C3 C2 1_555 1_555
H3 C3 1_555 1_555
C4 C3 1_555 1_555
H4 C4 1_555 1_555
C5 C4 1_555 1_555
H5 C5 1_555 1_555
C6 C1 1_555 1_555
C7 N1 1_555 1_555
H6 C7 1_555 1_555
C8 C7 1_555 1_555
H7 C8 1_555 1_555
H8 C8 1_555 1_555
C9 C8 1_555 1_555
C10 N1 1_555 1_555
H9 C10 1_555 1_555
C11 C9 1_555 1_555
C12 C11 1_555 1_555
H10 C12 1_555 1_555
C13 C12 1_555 1_555
H11 C13 1_555 1_555
C14 C13 1_555 1_555
C15 C14 1_555 1_555
H12 C15 1_555 1_555
C16 C11 1_555 1_555
H13 C16 1_555 1_555
C5 C6 1_555 1_555
C6 C7 1_555 1_555
C15 C16 1_555 1_555

#END
