
#######################################################################
#
#                 Cambridge Crystallographic Data Centre
#                                CCDC 
#
#######################################################################
#
# If this CIF has been generated from an entry in the Cambridge 
# Structural Database, then it will include bibliographic, chemical, 
# crystal, experimental, refinement or atomic coordinate data resulting 
# from the CCDC's data processing and validation procedures.
#
#######################################################################

data_ZOGZEC
_chemical_formula_moiety         'C21 H20 N2 O6 S1'
_chemical_name_systematic        
'methyl 2-(t-butylamino)-5-(4-nitrophenyl)-4-(thiophene-2-carbonyl)furan-3-carboxylate'
_symmetry_cell_setting           trigonal
_symmetry_space_group_name_H-M   'P 31'
_symmetry_Int_Tables_number      144
_space_group_name_Hall           'P 31'
loop_
_symmetry_equiv_pos_site_id
_symmetry_equiv_pos_as_xyz
1 x,y,z
2 -y,x-y,1/3+z
3 -x+y,-x,2/3+z
_cell_length_a                   10.104(2)
_cell_length_b                   10.104(2)
_cell_length_c                   17.905(4)
_cell_angle_alpha                90
_cell_angle_beta                 90
_cell_angle_gamma                120
_cell_volume                     1583.04
_exptl_crystal_colour            orange
_exptl_crystal_description       prism
_cell_formula_units_Z            3
loop_
_atom_site_label
_atom_site_type_symbol
_atom_site_fract_x
_atom_site_fract_y
_atom_site_fract_z
S1 S 0.03397(10) 0.60531(10) 0.87793(4)
O1 O 0.3573(2) 0.2631(2) 0.75194(10)
O2 O 0.6816(2) 0.6619(3) 0.85634(13)
O3 O 0.4772(2) 0.6666(2) 0.90434(11)
C1 C 0.4799(3) 0.3881(3) 0.77858(15)
C2 C 0.4352(3) 0.4685(3) 0.82531(15)
C3 C 0.2708(3) 0.3823(3) 0.82618(14)
C4 C 0.2266(3) 0.2580(3) 0.78171(15)
C5 C 0.5439(3) 0.6056(3) 0.86239(14)
C6 C 0.5793(5) 0.8083(4) 0.9411(2)
H1 H 0.6276 0.7888 0.9824
H2 H 0.5226 0.8549 0.9589
H3 H 0.6559 0.8758 0.9064
N1 N 0.6183(3) 0.4163(3) 0.75765(15)
H4 H 0.697(3) 0.490(3) 0.7814(18)
C7 C 0.6521(3) 0.3242(4) 0.70440(17)
C8 C 0.8235(4) 0.4074(6) 0.6958(3)
H5 H 0.8586 0.5104 0.6799
H6 H 0.8514 0.3562 0.6593
H7 H 0.8697 0.4086 0.7429
C9 C 0.5935(5) 0.1644(5) 0.7366(2)
H8 H 0.6369 0.1725 0.7853
H9 H 0.6226 0.1074 0.7043
H10 H 0.4841 0.1129 0.7406
C10 C 0.5801(5) 0.3172(4) 0.6284(2)
H11 H 0.4710 0.2542 0.6319
H12 H 0.6183 0.2746 0.5921
H13 H 0.6056 0.4185 0.6133
C11 C 0.0847(3) 0.1315(3) 0.75342(14)
C12 C 0.0907(3) 0.0467(3) 0.69303(16)
H14 H 0.1847 0.0717 0.6723
C13 C -0.0413(3) -0.0737(3) 0.66388(17)
H15 H -0.0370 -0.1298 0.6237
C14 C -0.1787(3) -0.1087(3) 0.69540(17)
C15 C -0.1890(3) -0.0293(4) 0.7544(2)
H16 H -0.2838 -0.0559 0.7747
C16 C -0.0568(3) 0.0917(4) 0.78413(17)
H17 H -0.0629 0.1460 0.8246
N2 N -0.3198(3) -0.2368(3) 0.66486(19)
O4 O -0.4413(3) -0.2664(4) 0.69425(18)
O5 O -0.3093(3) -0.3046(3) 0.6111(2)
C17 C 0.1661(3) 0.4255(3) 0.86556(14)
O6 O 0.0890(3) 0.3501(3) 0.91834(12)
C18 C 0.1547(3) 0.5538(3) 0.83632(14)
C19 C 0.2265(3) 0.6447(3) 0.77386(15)
H18 H 0.2954 0.6347 0.7434
C20 C 0.1795(4) 0.7543(4) 0.76341(19)
H19 H 0.2153 0.8257 0.7249
C21 C 0.0781(4) 0.7445(4) 0.8148(2)
H20 H 0.0365 0.8083 0.8154
loop_
_geom_bond_atom_site_label_1
_geom_bond_atom_site_label_2
_geom_bond_site_symmetry_1
_geom_bond_site_symmetry_2
S1 C18 1_555 1_555
O1 C1 1_555 1_555
O2 C5 1_555 1_555
O3 C5 1_555 1_555
C1 C2 1_555 1_555
C2 C3 1_555 1_555
C3 C4 1_555 1_555
C4 O1 1_555 1_555
C5 C2 1_555 1_555
C6 O3 1_555 1_555
H1 C6 1_555 1_555
H2 C6 1_555 1_555
H3 C6 1_555 1_555
N1 C1 1_555 1_555
H4 N1 1_555 1_555
C7 N1 1_555 1_555
C8 C7 1_555 1_555
H5 C8 1_555 1_555
H6 C8 1_555 1_555
H7 C8 1_555 1_555
C9 C7 1_555 1_555
H8 C9 1_555 1_555
H9 C9 1_555 1_555
H10 C9 1_555 1_555
C10 C7 1_555 1_555
H11 C10 1_555 1_555
H12 C10 1_555 1_555
H13 C10 1_555 1_555
C11 C4 1_555 1_555
C12 C11 1_555 1_555
H14 C12 1_555 1_555
C13 C12 1_555 1_555
H15 C13 1_555 1_555
C14 C13 1_555 1_555
C15 C14 1_555 1_555
H16 C15 1_555 1_555
C16 C11 1_555 1_555
H17 C16 1_555 1_555
N2 C14 1_555 1_555
O4 N2 1_555 1_555
O5 N2 1_555 1_555
C17 C3 1_555 1_555
O6 C17 1_555 1_555
C18 C17 1_555 1_555
C19 C18 1_555 1_555
H18 C19 1_555 1_555
C20 C19 1_555 1_555
H19 C20 1_555 1_555
C21 S1 1_555 1_555
H20 C21 1_555 1_555
C15 C16 1_555 1_555
C20 C21 1_555 1_555

#END
