
#######################################################################
#
#                 Cambridge Crystallographic Data Centre
#                                CCDC 
#
#######################################################################
#
# If this CIF has been generated from an entry in the Cambridge 
# Structural Database, then it will include bibliographic, chemical, 
# crystal, experimental, refinement or atomic coordinate data resulting 
# from the CCDC's data processing and validation procedures.
#
#######################################################################

data_ZOHNUH
_chemical_formula_moiety         'C18 H16 F1 N3 O1'
_chemical_name_systematic        
4-((3-fluorobenzylidene)amino)-1,5-dimethyl-2-phenyl-1,2-dihydro-3H-pyrazol-3-one
_symmetry_cell_setting           monoclinic
_symmetry_space_group_name_H-M   'P 21/a'
_symmetry_Int_Tables_number      14
_space_group_name_Hall           '-P 2yab'
loop_
_symmetry_equiv_pos_site_id
_symmetry_equiv_pos_as_xyz
1 x,y,z
2 1/2-x,1/2+y,-z
3 -x,-y,-z
4 1/2+x,1/2-y,z
_cell_length_a                   6.9568(7)
_cell_length_b                   25.450(3)
_cell_length_c                   9.1159(10)
_cell_angle_alpha                90
_cell_angle_beta                 99.501(2)
_cell_angle_gamma                90
_cell_volume                     1591.84
_exptl_crystal_colour            yellow
_exptl_crystal_description       plane
_cell_formula_units_Z            4
loop_
_atom_site_label
_atom_site_type_symbol
_atom_site_fract_x
_atom_site_fract_y
_atom_site_fract_z
O2 O 0.2105(10) 0.5655(2) 0.2782(7)
N4 N 0.4480(9) 0.5940(2) 0.1455(7)
N5 N 0.6068(9) 0.5697(2) 0.0936(8)
N6 N 0.4704(9) 0.4638(2) 0.3105(7)
C19 C 0.3357(11) 0.6322(2) 0.0587(7)
C20 C 0.2480(12) 0.6707(3) 0.1316(8)
H17 H 0.2691 0.6717 0.2350
C21 C 0.1287(14) 0.7079(3) 0.0512(9)
H18 H 0.0682 0.7338 0.0993
C22 C 0.1017(13) 0.7055(3) -0.1032(9)
H19 H 0.0228 0.7303 -0.1588
C23 C 0.1890(14) 0.6672(3) -0.1751(9)
H20 H 0.1676 0.6662 -0.2785
C24 C 0.3077(12) 0.6305(3) -0.0958(7)
H21 H 0.3685 0.6048 -0.1447
C25 C 0.3650(11) 0.5570(2) 0.2314(8)
C26 C 0.4908(10) 0.5125(3) 0.2433(8)
C27 C 0.6364(9) 0.5229(2) 0.1632(8)
C28 C 0.8084(12) 0.4902(3) 0.1480(11)
H22 H 0.8145 0.4852 0.0445
H23 H 0.7973 0.4567 0.1942
H24 H 0.9247 0.5075 0.1956
C29 C 0.7565(11) 0.6041(3) 0.0519(9)
H25 H 0.8756 0.5995 0.1207
H26 H 0.7146 0.6400 0.0541
H27 H 0.7779 0.5954 -0.0466
C30 C 0.3304(10) 0.4563(3) 0.3852(8)
H28 H 0.2474 0.4841 0.3964
C31 C 0.2983(10) 0.4062(2) 0.4521(8)
C32 C 0.1335(12) 0.3988(3) 0.5171(11)
H29 H 0.0457 0.4263 0.5187
C33 C 0.0990(14) 0.3511(3) 0.5791(11)
H30 H -0.0137 0.3465 0.6201
C34 C 0.2275(14) 0.3104(3) 0.5816(12)
H31 H 0.2060 0.2783 0.6247
C35 C 0.3887(15) 0.3191(3) 0.5179(12)
C36 C 0.4295(12) 0.3660(3) 0.4583(10)
H32 H 0.5456 0.3706 0.4220
F2 F 0.5081(13) 0.2808(2) 0.5194(11)
O1? O 0.2028(11) 0.5903(2) 0.2405(8)
N1? N 0.4386(10) 0.6192(2) 0.1095(8)
N2? N 0.5994(9) 0.5960(2) 0.0586(8)
N3? N 0.4709(10) 0.4902(3) 0.2768(8)
C1? C 0.3272(11) 0.6573(2) 0.0205(7)
C2? C 0.2331(13) 0.6954(3) 0.0897(8)
H1? H 0.2487 0.6972 0.1929
C3? C 0.1141(14) 0.7311(3) 0.0012(9)
H2? H 0.0477 0.7565 0.0466
C4? C 0.0923(14) 0.7299(3) -0.1509(9)
H3? H 0.0115 0.7539 -0.2082
C5? C 0.1908(14) 0.6931(3) -0.2160(9)
H4? H 0.1807 0.6929 -0.3190
C6? C 0.3053(13) 0.6561(3) -0.1336(7)
H5? H 0.3677 0.6303 -0.1808
C7? C 0.3586(12) 0.5822(3) 0.1961(9)
C8? C 0.4857(10) 0.5377(3) 0.2064(8)
C9? C 0.6310(10) 0.5483(3) 0.1255(9)
C10? C 0.8075(11) 0.5168(3) 0.1102(10)
H6? H 0.8101 0.5103 0.0068
H7? H 0.8036 0.4839 0.1614
H8? H 0.9223 0.5359 0.1527
C11? C 0.7481(12) 0.6299(3) 0.0140(10)
H9? H 0.7790 0.6575 0.0858
H10? H 0.7003 0.6449 -0.0817
H11? H 0.8632 0.6097 0.0086
C12? C 0.3295(11) 0.4820(3) 0.3489(8)
H12? H 0.2405 0.5088 0.3551
C13? C 0.3041(11) 0.4318(3) 0.4214(9)
C14? C 0.1347(13) 0.4225(3) 0.4806(11)
H13? H 0.0415 0.4489 0.4765
C15? C 0.1025(14) 0.3751(3) 0.5449(12)
H14? H -0.0128 0.3694 0.5816
C16? C 0.2422(14) 0.3361(3) 0.5547(12)
H15? H 0.2240 0.3041 0.5998
C17? C 0.4081(15) 0.3457(3) 0.4963(13)
C18? C 0.4417(12) 0.3926(3) 0.4295(10)
H16? H 0.5556 0.3977 0.3904
F1? F 0.5601(14) 0.3080(3) 0.5078(11)
loop_
_geom_bond_atom_site_label_1
_geom_bond_atom_site_label_2
_geom_bond_site_symmetry_1
_geom_bond_site_symmetry_2
O2 C25 1_555 1_555
N4 N5 1_555 1_555
N5 C27 1_555 1_555
N6 C26 1_555 1_555
C19 N4 1_555 1_555
C20 C19 1_555 1_555
H17 C20 1_555 1_555
C21 C20 1_555 1_555
H18 C21 1_555 1_555
C22 C21 1_555 1_555
H19 C22 1_555 1_555
C23 C22 1_555 1_555
H20 C23 1_555 1_555
C24 C19 1_555 1_555
H21 C24 1_555 1_555
C25 N4 1_555 1_555
C26 C25 1_555 1_555
C27 C26 1_555 1_555
C28 C27 1_555 1_555
H22 C28 1_555 1_555
H23 C28 1_555 1_555
H24 C28 1_555 1_555
C29 N5 1_555 1_555
H25 C29 1_555 1_555
H26 C29 1_555 1_555
H27 C29 1_555 1_555
C30 N6 1_555 1_555
H28 C30 1_555 1_555
C31 C30 1_555 1_555
C32 C31 1_555 1_555
H29 C32 1_555 1_555
C33 C32 1_555 1_555
H30 C33 1_555 1_555
C34 C33 1_555 1_555
H31 C34 1_555 1_555
C35 C34 1_555 1_555
C36 C31 1_555 1_555
H32 C36 1_555 1_555
F2 C35 1_555 1_555
C23 C24 1_555 1_555
C35 C36 1_555 1_555

#END
