
#######################################################################
#
#                 Cambridge Crystallographic Data Centre
#                                CCDC 
#
#######################################################################
#
# If this CIF has been generated from an entry in the Cambridge 
# Structural Database, then it will include bibliographic, chemical, 
# crystal, experimental, refinement or atomic coordinate data resulting 
# from the CCDC's data processing and validation procedures.
#
#######################################################################

data_ZOHVAT
_chemical_formula_moiety         'C11 H18 O7 S1'
_chemical_name_systematic        
'Methyl 2-(6-hydroxy-4-methyl-2,2-dioxo-3,7-dioxa-2-thiabicyclo(4.3.0)non-8-yl)propanoate'
_symmetry_cell_setting           triclinic
_symmetry_space_group_name_H-M   'P -1'
_symmetry_Int_Tables_number      2
_space_group_name_Hall           '-P 1'
loop_
_symmetry_equiv_pos_site_id
_symmetry_equiv_pos_as_xyz
1 x,y,z
2 -x,-y,-z
_cell_length_a                   8.370(1)
_cell_length_b                   8.839(2)
_cell_length_c                   10.027(2)
_cell_angle_alpha                77.56(2)
_cell_angle_beta                 81.74(1)
_cell_angle_gamma                67.15(1)
_cell_volume                     666.071
_exptl_crystal_colour            colorless
_cell_formula_units_Z            2
loop_
_atom_site_label
_atom_site_type_symbol
_atom_site_fract_x
_atom_site_fract_y
_atom_site_fract_z
C1 C -0.2097(2) 0.8637(2) 0.9135(2)
H1 H -0.2649(2) 0.9350(2) 0.9839(2)
C2 C -0.2528(2) 0.9640(2) 0.7682(2)
O1 O -0.4303(2) 1.0665(2) 0.78137(13)
H2 H -0.4616(9) 1.1250(25) 0.7061(6)
O2 O -0.2252(2) 0.84035(15) 0.68943(11)
C3 C -0.2648(2) 0.7015(2) 0.7738(2)
H3 H -0.1632(2) 0.5970(2) 0.7674(2)
C4 C -0.4208(2) 0.6886(2) 0.7221(2)
H4 H -0.5220(2) 0.7931(2) 0.7295(2)
C5 C -0.3902(2) 0.6656(2) 0.5747(2)
O3 O -0.4958(2) 0.7374(2) 0.49016(14)
O4 O -0.2365(2) 0.5481(2) 0.55066(13)
C6 C -0.2009(3) 0.4979(3) 0.4188(2)
H5 H -0.0803(7) 0.4243(18) 0.4093(7)
H6 H -0.2230(22) 0.5957(3) 0.3475(2)
H7 H -0.2755(17) 0.4398(20) 0.4108(7)
C7 C -0.4649(3) 0.5428(3) 0.8092(2)
H8 H -0.5149(21) 0.5702(9) 0.8984(7)
H9 H -0.3598(5) 0.4437(6) 0.8201(15)
H10 H -0.5478(18) 0.5224(15) 0.7642(9)
C8 C -0.2915(2) 0.7339(2) 0.9216(2)
H11 H -0.4153(2) 0.7778(2) 0.9511(2)
H12 H -0.2325(2) 0.6318(2) 0.9851(2)
S1 S 0.02029(5) 0.76537(5) 0.92719(4)
O5 O 0.0590(2) 0.7285(2) 1.06707(13)
O6 O 0.0892(2) 0.63280(15) 0.84976(13)
C9 C -0.1445(3) 1.0679(2) 0.7041(2)
H13 H -0.1702(3) 1.1100(2) 0.6078(2)
H14 H -0.1802(3) 1.1645(2) 0.7499(2)
C10 C 0.0496(3) 0.9769(2) 0.7112(2)
H15 H 0.0907(3) 0.8847(2) 0.6582(2)
C11 C 0.1485(3) 1.0915(3) 0.6610(2)
H16 H 0.1353(19) 1.1333(18) 0.5639(4)
H17 H 0.2706(5) 1.0305(6) 0.6765(17)
H18 H 0.1032(15) 1.1843(12) 0.7103(13)
O7 O 0.0864(2) 0.9097(2) 0.85762(13)
loop_
_geom_bond_atom_site_label_1
_geom_bond_atom_site_label_2
_geom_bond_site_symmetry_1
_geom_bond_site_symmetry_2
C1 H1 1_555 1_555
C2 C1 1_555 1_555
O1 C2 1_555 1_555
H2 O1 1_555 1_555
O2 C2 1_555 1_555
C3 O2 1_555 1_555
H3 C3 1_555 1_555
C4 C3 1_555 1_555
H4 C4 1_555 1_555
C5 C4 1_555 1_555
O3 C5 1_555 1_555
O4 C5 1_555 1_555
C6 O4 1_555 1_555
H5 C6 1_555 1_555
H6 C6 1_555 1_555
H7 C6 1_555 1_555
C7 C4 1_555 1_555
H8 C7 1_555 1_555
H9 C7 1_555 1_555
H10 C7 1_555 1_555
C8 C1 1_555 1_555
H11 C8 1_555 1_555
H12 C8 1_555 1_555
S1 C1 1_555 1_555
O5 S1 1_555 1_555
O6 S1 1_555 1_555
C9 C2 1_555 1_555
H13 C9 1_555 1_555
H14 C9 1_555 1_555
C10 C9 1_555 1_555
H15 C10 1_555 1_555
C11 C10 1_555 1_555
H16 C11 1_555 1_555
H17 C11 1_555 1_555
H18 C11 1_555 1_555
O7 S1 1_555 1_555
C3 C8 1_555 1_555
C10 O7 1_555 1_555

#END
