
#######################################################################
#
#                 Cambridge Crystallographic Data Centre
#                                CCDC 
#
#######################################################################
#
# If this CIF has been generated from an entry in the Cambridge 
# Structural Database, then it will include bibliographic, chemical, 
# crystal, experimental, refinement or atomic coordinate data resulting 
# from the CCDC's data processing and validation procedures.
#
#######################################################################

data_ZOKQIB
_chemical_formula_moiety         'C16 H24 N4 O3'
_chemical_name_systematic        
8-((2-hydroxypropyl)amino)-2-methyl-6-(morpholin-4-yl)-3,4-dihydro-2,7-naphthyridin-1(2H)-one
_symmetry_cell_setting           monoclinic
_symmetry_space_group_name_H-M   'P 21/n'
_symmetry_Int_Tables_number      14
_space_group_name_Hall           '-P 2yn'
loop_
_symmetry_equiv_pos_site_id
_symmetry_equiv_pos_as_xyz
1 x,y,z
2 1/2-x,1/2+y,1/2-z
3 -x,-y,-z
4 1/2+x,1/2-y,1/2+z
_cell_length_a                   12.496(3)
_cell_length_b                   6.7337(13)
_cell_length_c                   19.280(4)
_cell_angle_alpha                90
_cell_angle_beta                 96.09(3)
_cell_angle_gamma                90
_cell_volume                     1613.15
_exptl_crystal_colour            colorless
_exptl_crystal_description       prism
_cell_formula_units_Z            4
loop_
_atom_site_label
_atom_site_type_symbol
_atom_site_fract_x
_atom_site_fract_y
_atom_site_fract_z
N1 N 0.96065(16) 0.5951(3) 0.75612(10)
C1 C 0.91778(19) 0.4272(4) 0.72753(12)
C2 C 0.8493(2) 0.3057(4) 0.76227(13)
H1 H 0.816(2) 0.198(4) 0.7402(12)
C3 C 0.83403(19) 0.3508(4) 0.82973(12)
C4 C 0.7680(2) 0.2181(4) 0.87039(13)
H2 H 0.696(2) 0.256(4) 0.8661(13)
H3 H 0.765(2) 0.088(4) 0.8522(12)
C5 C 0.8092(3) 0.2233(4) 0.94635(14)
H4 H 0.875(2) 0.155(4) 0.9538(12)
H5 H 0.770(2) 0.142(4) 0.9783(12)
N2 N 0.81907(18) 0.4271(3) 0.97131(10)
C6 C 0.8645(2) 0.5676(4) 0.93476(12)
C7 C 0.88063(18) 0.5195(4) 0.86237(11)
C8 C 0.94134(19) 0.6434(4) 0.82096(11)
H6 H 0.9831(18) 0.838(4) 0.8870(12)
N3 N 0.98613(19) 0.8160(3) 0.84510(11)
C9 C 1.0622(2) 0.9238(4) 0.80862(13)
H7 H 1.1279(18) 0.840(4) 0.8017(11)
H8 H 1.0284(19) 0.969(4) 0.7603(12)
C10 C 1.1035(2) 1.1060(4) 0.84747(12)
H9 H 1.0433(18) 1.176(3) 0.8777(11)
C11 C 1.1845(2) 1.2130(4) 0.80748(14)
H10 H 1.2155 1.3216 0.8349
H11 H 1.1490 1.2628 0.7644
H12 H 1.2403 1.1222 0.7978
H13 H 1.113(3) 1.161(7) 0.951(2)
O1 O 1.15060(17) 1.0488(3) 0.91489(10)
C12 C 0.8078(3) 0.4618(5) 1.04501(12)
H14 H 0.8771 0.4912 1.0693
H15 H 0.7789 0.3451 1.0647
H16 H 0.7601 0.5718 1.0494
O2 O 0.89164(15) 0.7310(3) 0.96252(8)
N4 N 0.94696(17) 0.3802(3) 0.66297(10)
C13 C 1.0090(2) 0.5153(5) 0.62463(14)
H17 H 1.050(2) 0.609(4) 0.6611(13)
H18 H 0.963(2) 0.570(5) 0.5904(15)
C14 C 1.0863(2) 0.4031(5) 0.58611(15)
H19 H 1.1230 0.4949 0.5579
H20 H 1.1400 0.3417 0.6193
O3 O 1.03507(17) 0.2533(3) 0.54216(10)
C15 C 0.9799(3) 0.1189(5) 0.58275(17)
H21 H 1.042(3) 0.062(6) 0.6218(18)
H22 H 0.949(3) 0.032(6) 0.5511(17)
C16 C 0.8977(3) 0.2191(5) 0.62078(15)
H23 H 0.865(2) 0.117(4) 0.6537(14)
H24 H 0.853(3) 0.278(5) 0.5892(18)
loop_
_geom_bond_atom_site_label_1
_geom_bond_atom_site_label_2
_geom_bond_site_symmetry_1
_geom_bond_site_symmetry_2
N1 C1 1_555 1_555
C1 C2 1_555 1_555
C2 H1 1_555 1_555
C3 C2 1_555 1_555
C4 C3 1_555 1_555
H2 C4 1_555 1_555
H3 C4 1_555 1_555
C5 C4 1_555 1_555
H4 C5 1_555 1_555
H5 C5 1_555 1_555
N2 C5 1_555 1_555
C6 N2 1_555 1_555
C7 C3 1_555 1_555
C8 N1 1_555 1_555
H6 N3 1_555 1_555
N3 C8 1_555 1_555
C9 N3 1_555 1_555
H7 C9 1_555 1_555
H8 C9 1_555 1_555
C10 C9 1_555 1_555
H9 C10 1_555 1_555
C11 C10 1_555 1_555
H10 C11 1_555 1_555
H11 C11 1_555 1_555
H12 C11 1_555 1_555
H13 O1 1_555 1_555
O1 C10 1_555 1_555
C12 N2 1_555 1_555
H14 C12 1_555 1_555
H15 C12 1_555 1_555
H16 C12 1_555 1_555
O2 C6 1_555 1_555
N4 C1 1_555 1_555
C13 N4 1_555 1_555
H17 C13 1_555 1_555
H18 C13 1_555 1_555
C14 C13 1_555 1_555
H19 C14 1_555 1_555
H20 C14 1_555 1_555
O3 C14 1_555 1_555
C15 O3 1_555 1_555
H21 C15 1_555 1_555
H22 C15 1_555 1_555
C16 N4 1_555 1_555
H23 C16 1_555 1_555
H24 C16 1_555 1_555
C6 C7 1_555 1_555
C7 C8 1_555 1_555
C15 C16 1_555 1_555

#END
