
#######################################################################
#
#                 Cambridge Crystallographic Data Centre
#                                CCDC 
#
#######################################################################
#
# If this CIF has been generated from an entry in the Cambridge 
# Structural Database, then it will include bibliographic, chemical, 
# crystal, experimental, refinement or atomic coordinate data resulting 
# from the CCDC's data processing and validation procedures.
#
#######################################################################

data_ZOLSOK
_chemical_formula_moiety         'C11 H16 B10 O1 S2'
_chemical_name_systematic        
9,12-(3-oxo-3-phenylprop-1-ene-1,2-diyl)-dithio-1,2-dicarba-closo-dodecaborane
_symmetry_cell_setting           monoclinic
_symmetry_space_group_name_H-M   'P 21/n'
_symmetry_Int_Tables_number      14
_space_group_name_Hall           '-P 2yn'
loop_
_symmetry_equiv_pos_site_id
_symmetry_equiv_pos_as_xyz
1 x,y,z
2 1/2-x,1/2+y,1/2-z
3 -x,-y,-z
4 1/2+x,1/2-y,1/2+z
_cell_length_a                   11.0151(13)
_cell_length_b                   12.5230(15)
_cell_length_c                   12.7305(15)
_cell_angle_alpha                90
_cell_angle_beta                 94.310(2)
_cell_angle_gamma                90
_cell_volume                     1751.11
_cell_formula_units_Z            4
loop_
_atom_site_label
_atom_site_type_symbol
_atom_site_fract_x
_atom_site_fract_y
_atom_site_fract_z
O1 O 0.16752(14) 0.00805(12) 0.57440(11)
S1 S 0.20544(4) 0.18209(4) 0.42974(4)
S2 S 0.54496(4) 0.17777(5) 0.44317(4)
B1 B 0.45411(18) 0.26835(16) 0.35297(16)
C1 C 0.43846(17) 0.12707(15) 0.52387(14)
H1 H 0.4744 0.0927 0.5831
C2 C 0.25861(17) 0.05941(15) 0.59975(14)
C3 C 0.31670(15) 0.12593(14) 0.52065(12)
B2 B 0.3682(2) 0.22168(17) 0.23761(16)
H2 H 0.3654 0.1371 0.2144
B3 B 0.37998(19) 0.38227(17) 0.40373(18)
H3 H 0.3847 0.4018 0.4882
B4 B 0.29490(17) 0.27078(15) 0.34868(15)
C4 C 0.31184(18) 0.06043(18) 0.71182(15)
C5 C 0.3816(3) 0.0691(4) 0.9241(2)
H4 H 0.4026 0.0727 0.9962
C6 C 0.44564(19) 0.42514(16) 0.20507(17)
H5 H 0.4965 0.4783 0.1554
B5 B 0.5005(2) 0.30053(18) 0.22637(18)
H6 H 0.5839 0.2684 0.1958
B6 B 0.2459(2) 0.40366(18) 0.32042(19)
H7 H 0.1630 0.4378 0.3499
B7 B 0.2385(2) 0.30435(19) 0.21880(18)
H8 H 0.1508 0.2747 0.1832
C7 C 0.3568(2) 0.1538(2) 0.75718(17)
H9 H 0.3647 0.2143 0.7158
C8 C 0.2967(2) 0.42741(17) 0.20114(18)
H10 H 0.2430 0.4824 0.1487
B8 B 0.5068(2) 0.39908(19) 0.32796(19)
H11 H 0.5943 0.4301 0.3626
B9 B 0.3656(3) 0.32293(19) 0.1429(2)
H12 H 0.3608 0.3071 0.0577
C9 C 0.3043(2) -0.0307(2) 0.77254(18)
H13 H 0.2745 -0.0941 0.7426
B10 B 0.3775(3) 0.48257(19) 0.3068(2)
H14 H 0.3803 0.5683 0.3257
C10 C 0.3425(3) -0.0257(3) 0.8803(2)
H15 H 0.3411 -0.0867 0.9218
C11 C 0.3903(2) 0.1579(3) 0.8641(2)
H16 H 0.4188 0.2214 0.8947
loop_
_geom_bond_atom_site_label_1
_geom_bond_atom_site_label_2
_geom_bond_site_symmetry_1
_geom_bond_site_symmetry_2
O1 C2 1_555 1_555
S1 C3 1_555 1_555
S2 B1 1_555 1_555
B1 B2 1_555 1_555
C1 S2 1_555 1_555
H1 C1 1_555 1_555
C2 C3 1_555 1_555
C3 C1 1_555 1_555
B2 H2 1_555 1_555
B3 B1 1_555 1_555
H3 B3 1_555 1_555
B4 S1 1_555 1_555
C4 C2 1_555 1_555
C5 H4 1_555 1_555
C6 H5 1_555 1_555
B5 B1 1_555 1_555
H6 B5 1_555 1_555
B6 B3 1_555 1_555
H7 B6 1_555 1_555
B7 B2 1_555 1_555
H8 B7 1_555 1_555
C7 C4 1_555 1_555
H9 C7 1_555 1_555
C8 C6 1_555 1_555
H10 C8 1_555 1_555
B8 B1 1_555 1_555
H11 B8 1_555 1_555
B9 B2 1_555 1_555
H12 B9 1_555 1_555
C9 C4 1_555 1_555
H13 C9 1_555 1_555
B10 B3 1_555 1_555
H14 B10 1_555 1_555
C10 C5 1_555 1_555
H15 C10 1_555 1_555
C11 C5 1_555 1_555
H16 C11 1_555 1_555
B1 B4 1_555 1_555
B2 B4 1_555 1_555
B2 B5 1_555 1_555
B3 B4 1_555 1_555
B3 B8 1_555 1_555
B4 B6 1_555 1_555
B4 B7 1_555 1_555
C6 B5 1_555 1_555
C6 B8 1_555 1_555
C6 B9 1_555 1_555
C6 B10 1_555 1_555
B5 B8 1_555 1_555
B5 B9 1_555 1_555
B6 B7 1_555 1_555
B6 C8 1_555 1_555
B6 B10 1_555 1_555
B7 C8 1_555 1_555
B7 B9 1_555 1_555
C7 C11 1_555 1_555
C8 B9 1_555 1_555
C8 B10 1_555 1_555
B8 B10 1_555 1_555
C9 C10 1_555 1_555

#END
