
#######################################################################
#
#                 Cambridge Crystallographic Data Centre
#                                CCDC 
#
#######################################################################
#
# If this CIF has been generated from an entry in the Cambridge 
# Structural Database, then it will include bibliographic, chemical, 
# crystal, experimental, refinement or atomic coordinate data resulting 
# from the CCDC's data processing and validation procedures.
#
#######################################################################

data_ZOMCOT
_chemical_formula_moiety         'C20 H25 Br1 N2 O1 S1'
_chemical_name_systematic        
(+)-3-((S)-((2R,5S)-4-Allyl-2,5-dimethyl-1-piperazinyl)(4-bromo-2-thienyl)methyl)phenol
_symmetry_cell_setting           orthorhombic
_symmetry_space_group_name_H-M   'P 21 21 21'
_symmetry_Int_Tables_number      19
_space_group_name_Hall           'P 2ac 2ab'
loop_
_symmetry_equiv_pos_site_id
_symmetry_equiv_pos_as_xyz
1 x,y,z
2 1/2-x,-y,1/2+z
3 1/2+x,1/2-y,-z
4 -x,1/2+y,1/2-z
_cell_length_a                   10.991(1)
_cell_length_b                   17.965(2)
_cell_length_c                   10.1791(5)
_cell_angle_alpha                90
_cell_angle_beta                 90
_cell_angle_gamma                90
_cell_volume                     2009.9
_exptl_crystal_colour            colorless
_chemical_melting_point          183-185deg.C
_cell_formula_units_Z            4
loop_
_atom_site_label
_atom_site_type_symbol
_atom_site_fract_x
_atom_site_fract_y
_atom_site_fract_z
Br1 Br 0.60803(4) 0.47378(2) 0.62136(4)
S1 S 0.58463(9) 0.40985(4) 0.21074(7)
O1 O 0.1080(2) 0.2952(1) 0.2685(2)
N1 N 0.5890(2) 0.1920(1) 0.3230(2)
N2 N 0.6559(2) 0.0984(1) 0.5383(2)
C1 C 0.5744(3) 0.3524(2) 0.4378(3)
C2 C 0.5916(3) 0.4295(2) 0.4536(3)
C3 C 0.5992(3) 0.4682(2) 0.3414(3)
C4 C 0.5683(3) 0.3325(1) 0.3091(3)
C5 C 0.5518(3) 0.2571(1) 0.2445(2)
C6 C 0.4229(3) 0.2447(1) 0.1942(2)
C7 C 0.3249(3) 0.2802(1) 0.2506(3)
C8 C 0.2059(3) 0.2623(2) 0.2131(3)
C9 C 0.1868(3) 0.2093(2) 0.1176(3)
C10 C 0.2846(3) 0.1755(2) 0.0584(3)
C11 C 0.4028(3) 0.1928(1) 0.0957(3)
C12 C 0.5011(3) 0.1674(2) 0.4212(3)
C13 C 0.5336(3) 0.0919(2) 0.4785(3)
C14 C 0.7435(3) 0.1194(2) 0.4351(3)
C15 C 0.7146(3) 0.1950(1) 0.3770(3)
C16 C 0.8078(3) 0.2151(2) 0.2729(3)
C17 C 0.4378(3) 0.0677(2) 0.5752(3)
C18 C 0.6981(3) 0.0307(2) 0.6076(3)
C19 C 0.7067(4) -0.0385(2) 0.5271(4)
C20 C 0.8075(5) -0.0732(2) 0.5046(5)
loop_
_geom_bond_atom_site_label_1
_geom_bond_atom_site_label_2
_geom_bond_site_symmetry_1
_geom_bond_site_symmetry_2
Br1 C2 1_555 1_555
S1 C3 1_555 1_555
O1 C8 1_555 1_555
N1 C5 1_555 1_555
N2 C13 1_555 1_555
C1 C2 1_555 1_555
C2 C3 1_555 1_555
C4 S1 1_555 1_555
C5 C4 1_555 1_555
C6 C5 1_555 1_555
C7 C6 1_555 1_555
C8 C7 1_555 1_555
C9 C8 1_555 1_555
C10 C9 1_555 1_555
C11 C6 1_555 1_555
C12 N1 1_555 1_555
C13 C12 1_555 1_555
C14 N2 1_555 1_555
C15 N1 1_555 1_555
C16 C15 1_555 1_555
C17 C13 1_555 1_555
C18 N2 1_555 1_555
C19 C18 1_555 1_555
C20 C19 1_555 1_555
C1 C4 1_555 1_555
C10 C11 1_555 1_555
C14 C15 1_555 1_555

#END
