
#######################################################################
#
#                 Cambridge Crystallographic Data Centre
#                                CCDC 
#
#######################################################################
#
# If this CIF has been generated from an entry in the Cambridge 
# Structural Database, then it will include bibliographic, chemical, 
# crystal, experimental, refinement or atomic coordinate data resulting 
# from the CCDC's data processing and validation procedures.
#
#######################################################################

data_ZOMQEZ
_chemical_formula_moiety         'C30 H34 N7 O9 1+,Cl1 O4 1-,H2 O1'
_chemical_name_systematic        
'2-(((5-(methoxycarbonyl)pyridin-2-yl)carbonyl)amino)-N,N-bis(2-(((5-(methoxycarbonyl)pyridin-2-yl)carbonyl)amino)ethyl)ethanaminium perchlorate monohydrate'
_symmetry_cell_setting           triclinic
_symmetry_space_group_name_H-M   'P -1'
_symmetry_Int_Tables_number      2
_space_group_name_Hall           '-P 1'
loop_
_symmetry_equiv_pos_site_id
_symmetry_equiv_pos_as_xyz
1 x,y,z
2 -x,-y,-z
_cell_length_a                   7.1623(6)
_cell_length_b                   13.8115(15)
_cell_length_c                   17.8102(13)
_cell_angle_alpha                107.186(9)
_cell_angle_beta                 92.852(6)
_cell_angle_gamma                97.661(8)
_cell_volume                     1660.72
_exptl_crystal_colour            colorless
_exptl_crystal_description       block
_cell_formula_units_Z            2
loop_
_atom_site_label
_atom_site_type_symbol
_atom_site_fract_x
_atom_site_fract_y
_atom_site_fract_z
C1 C -0.3977(4) 0.2273(2) -0.48272(13)
H1 H -0.4223 0.2535 -0.5278
H2 H -0.5081 0.1760 -0.4826
C2 C -0.2236(4) 0.1746(2) -0.49517(14)
H3 H -0.2228 0.1396 -0.5523
H4 H -0.1096 0.2277 -0.4785
C3 C -0.1673(3) 0.1278(2) -0.37554(14)
C4 C -0.1311(3) 0.04524(19) -0.34115(14)
C5 C -0.0496(3) 0.0736(2) -0.26354(14)
H5 H -0.0208 0.1437 -0.2329
C6 C -0.0119(3) -0.0027(2) -0.23232(15)
H6 H 0.0475 0.0142 -0.1802
C7 C -0.0617(3) -0.1038(2) -0.27774(16)
C8 C -0.1458(4) -0.1251(2) -0.35484(17)
H7 H -0.1813 -0.1948 -0.3858
C9 C -0.0340(4) -0.1911(2) -0.24727(19)
C10 C 0.1220(5) -0.2480(2) -0.15556(19)
H8 H 0.2098 -0.2208 -0.1076
H9 H 0.1797 -0.2965 -0.1962
H10 H 0.0044 -0.2833 -0.1437
C11 C -0.5696(4) 0.3457(2) -0.38746(15)
H11 H -0.6247 0.3661 -0.4315
H12 H -0.5512 0.4065 -0.3398
C12 C -0.7081(4) 0.2628(2) -0.37295(15)
H13 H -0.8218 0.2919 -0.3532
H14 H -0.7482 0.2082 -0.4236
C13 C -0.6338(3) 0.1177(2) -0.33127(14)
C14 C -0.5591(3) 0.0856(2) -0.26319(13)
C15 C -0.5525(3) -0.0163(2) -0.27231(15)
H15 H -0.5951 -0.0671 -0.3214
C16 C -0.4830(3) -0.0436(2) -0.20901(14)
H16 H -0.4789 -0.1134 -0.2133
C17 C -0.4194(3) 0.0335(2) -0.13900(14)
C18 C -0.4352(4) 0.1337(2) -0.13517(14)
H17 H -0.3954 0.1859 -0.0866
C19 C -0.3360(4) 0.0134(2) -0.06813(16)
C20 C -0.2179(5) -0.1051(3) -0.01498(19)
H18 H -0.1941 -0.1763 -0.0318
H19 H -0.3073 -0.0969 0.0255
H20 H -0.0987 -0.0591 0.0068
C21 C -0.2455(4) 0.40580(19) -0.41133(13)
H21 H -0.3033 0.4357 -0.4492
H22 H -0.1293 0.3813 -0.4325
C22 C -0.1900(4) 0.48964(19) -0.33350(14)
H23 H -0.1150 0.5493 -0.3436
H24 H -0.3064 0.5119 -0.3109
C23 C -0.1630(3) 0.41908(18) -0.22382(13)
C24 C -0.0298(3) 0.40083(17) -0.16361(12)
C25 C -0.1019(3) 0.37763(19) -0.09904(13)
H25 H -0.2344 0.3687 -0.0948
C26 C 0.0223(3) 0.36782(19) -0.04125(13)
H26 H -0.0226 0.3539 0.0044
C27 C 0.2144(3) 0.37861(18) -0.05069(13)
C28 C 0.2733(3) 0.3977(2) -0.11892(13)
H27 H 0.4042 0.4017 -0.1265
C29 C 0.3617(3) 0.37219(19) 0.00935(13)
C30 C 0.4226(4) 0.3629(2) 0.13824(15)
H28 H 0.3560 0.3608 0.1846
H29 H 0.5215 0.4233 0.1526
H30 H 0.4804 0.3007 0.1194
N1 N -0.3807(3) 0.31545(15) -0.40690(11)
H31 H -0.3330 0.2935 -0.3663
N2 N -0.2105(3) 0.10044(17) -0.45322(12)
H32 H -0.2319 0.0347 -0.4800
N3 N -0.1783(3) -0.05249(17) -0.38678(13)
N4 N -0.6313(3) 0.21777(16) -0.31662(12)
H33 H -0.5804 0.2589 -0.2703
N5 N -0.5028(3) 0.16119(16) -0.19535(12)
N6 N -0.0812(3) 0.45936(15) -0.27575(11)
H34 H 0.0429 0.4678 -0.2749
N7 N 0.1555(3) 0.41048(16) -0.17408(11)
O1 O -0.1513(3) 0.21768(13) -0.33292(10)
O2 O 0.0811(3) -0.16525(15) -0.18371(11)
O3 O -0.1170(4) -0.27589(18) -0.27618(18)
O4 O -0.6950(3) 0.05328(15) -0.39470(10)
O5 O -0.2972(3) -0.08025(15) -0.08219(11)
O6 O -0.3079(4) 0.07705(18) -0.00417(13)
O7 O -0.3355(2) 0.39940(13) -0.22351(9)
O8 O 0.2891(2) 0.36884(14) 0.07605(9)
O9 O 0.5248(2) 0.36900(16) -0.00121(10)
O10 O 0.1327(5) 0.3630(2) 0.47583(18)
O11 O 0.5175(3) 0.40480(19) 0.41066(12)
O12 O 0.6832(4) 0.42415(18) 0.30398(13)
Cl1 Cl 0.65280(11) 0.37184(6) 0.35869(4)
O13 O 0.8320(5) 0.4241(5) 0.4133(2)
O14 O 0.6468(9) 0.2710(3) 0.3363(3)
O15? O 0.7791(9) 0.3100(6) 0.3713(4)
O16? O 0.5027(13) 0.2859(6) 0.2902(5)
loop_
_geom_bond_atom_site_label_1
_geom_bond_atom_site_label_2
_geom_bond_site_symmetry_1
_geom_bond_site_symmetry_2
C1 H1 1_555 1_555
H2 C1 1_555 1_555
C2 C1 1_555 1_555
H3 C2 1_555 1_555
H4 C2 1_555 1_555
C3 C4 1_555 1_555
C4 C5 1_555 1_555
C5 H5 1_555 1_555
C6 C5 1_555 1_555
H6 C6 1_555 1_555
C7 C6 1_555 1_555
C8 C7 1_555 1_555
H7 C8 1_555 1_555
C9 C7 1_555 1_555
C10 H8 1_555 1_555
H9 C10 1_555 1_555
H10 C10 1_555 1_555
C11 H11 1_555 1_555
H12 C11 1_555 1_555
C12 C11 1_555 1_555
H13 C12 1_555 1_555
H14 C12 1_555 1_555
C13 C14 1_555 1_555
C14 C15 1_555 1_555
C15 H15 1_555 1_555
C16 C15 1_555 1_555
H16 C16 1_555 1_555
C17 C16 1_555 1_555
C18 C17 1_555 1_555
H17 C18 1_555 1_555
C19 C17 1_555 1_555
C20 H18 1_555 1_555
H19 C20 1_555 1_555
H20 C20 1_555 1_555
C21 H21 1_555 1_555
H22 C21 1_555 1_555
C22 C21 1_555 1_555
H23 C22 1_555 1_555
H24 C22 1_555 1_555
C23 C24 1_555 1_555
C24 C25 1_555 1_555
C25 H25 1_555 1_555
C26 C25 1_555 1_555
H26 C26 1_555 1_555
C27 C26 1_555 1_555
C28 C27 1_555 1_555
H27 C28 1_555 1_555
C29 C27 1_555 1_555
C30 H28 1_555 1_555
H29 C30 1_555 1_555
H30 C30 1_555 1_555
N1 C1 1_555 1_555
H31 N1 1_555 1_555
N2 C2 1_555 1_555
H32 N2 1_555 1_555
N3 C4 1_555 1_555
N4 C12 1_555 1_555
H33 N4 1_555 1_555
N5 C14 1_555 1_555
N6 C22 1_555 1_555
H34 N6 1_555 1_555
N7 C24 1_555 1_555
O1 C3 1_555 1_555
O2 C9 1_555 1_555
O3 C9 1_555 1_555
O4 C13 1_555 1_555
O5 C19 1_555 1_555
O6 C19 1_555 1_555
O7 C23 1_555 1_555
O8 C29 1_555 1_555
O9 C29 1_555 1_555
O11 Cl1 1_555 1_555
O12 Cl1 1_555 1_555
Cl1 O13 1_555 1_555
O14 Cl1 1_555 1_555
C3 N2 1_555 1_555
C8 N3 1_555 1_555
C10 O2 1_555 1_555
C11 N1 1_555 1_555
C13 N4 1_555 1_555
C18 N5 1_555 1_555
C20 O5 1_555 1_555
C21 N1 1_555 1_555
C23 N6 1_555 1_555
C28 N7 1_555 1_555
C30 O8 1_555 1_555

#END
