
#######################################################################
#
#                 Cambridge Crystallographic Data Centre
#                                CCDC 
#
#######################################################################
#
# If this CIF has been generated from an entry in the Cambridge 
# Structural Database, then it will include bibliographic, chemical, 
# crystal, experimental, refinement or atomic coordinate data resulting 
# from the CCDC's data processing and validation procedures.
#
#######################################################################

data_ZOMZOS
_chemical_formula_moiety         'C23 H22 N2 O4 S1,0.5(C2 H6 O1),H2 O1'
_chemical_name_systematic        
'ethyl 1-ethyl-4-oxo-6-(4-oxo-2-phenyl-1,3-thiazolidin-3-yl)-1,4-dihydroquinoline-3-carboxylate ethanol solvate monohydrate'
_chemical_properties_biological  'cytotoxic activity'
_symmetry_cell_setting           triclinic
_symmetry_space_group_name_H-M   'P -1'
_symmetry_Int_Tables_number      2
_space_group_name_Hall           '-P 1'
loop_
_symmetry_equiv_pos_site_id
_symmetry_equiv_pos_as_xyz
1 x,y,z
2 -x,-y,-z
_cell_length_a                   10.8717(3)
_cell_length_b                   11.0038(3)
_cell_length_c                   11.2648(3)
_cell_angle_alpha                66.040(2)
_cell_angle_beta                 86.422(2)
_cell_angle_gamma                67.0520(10)
_cell_volume                     1126.63
_exptl_crystal_colour            yellow
_exptl_crystal_description       Block
_cell_formula_units_Z            2
loop_
_atom_site_label
_atom_site_type_symbol
_atom_site_fract_x
_atom_site_fract_y
_atom_site_fract_z
C24 C 0.0673(3) 0.5010(3) 0.0062(3)
H23 H 0.088(3) 0.517(4) -0.073(4)
H24 H 0.054(3) 0.533(3) 0.073(3)
O5 O 0.1734(3) 0.3687(3) 0.0473(3)
H25 H 0.1639 0.3140 0.1219
C24A C -0.0673(3) 0.4990(3) -0.0062(3)
H23A H -0.088(3) 0.483(4) 0.073(4)
H24A H -0.054(3) 0.467(3) -0.073(3)
O5A O -0.1734(3) 0.6313(3) -0.0473(3)
H25A H -0.1639 0.6860 -0.1219
O6 O 0.3744(6) 0.1337(12) 0.2572(9)
H27 H 0.294(6) 0.139(6) 0.255(5)
H28 H 0.385(5) 0.188(6) 0.275(5)
S1 S 0.64852(4) -0.00798(5) -0.03343(4)
O1 O 0.98604(11) -0.12397(13) 0.15712(11)
O2 O 1.10230(12) 0.17603(14) 0.26373(12)
O3 O 1.2138(2) 0.2969(2) 0.38255(16)
O4 O 1.13127(14) 0.30603(15) 0.56533(13)
N1 N 0.76490(12) 0.02885(14) 0.13816(12)
N2 N 0.83547(13) 0.18649(15) 0.53661(13)
C1 C 0.60733(15) 0.25964(17) -0.03412(15)
C2 C 0.47504(17) 0.36206(19) -0.06584(17)
H1 H 0.4043 0.3344 -0.0280
C3 C 0.44671(19) 0.5046(2) -0.15277(19)
H2 H 0.3563 0.5741 -0.1745
C4 C 0.5487(2) 0.5458(2) -0.20771(19)
H3 H 0.5285 0.6434 -0.2676
C5 C 0.68061(19) 0.4451(2) -0.17567(17)
H4 H 0.7510 0.4737 -0.2131
C6 C 0.71013(16) 0.30242(18) -0.08893(16)
H5 H 0.8008 0.2336 -0.0668
C7 C 0.63580(15) 0.10358(17) 0.05565(15)
H6 H 0.5621 0.1008 0.1131
C8 C 0.87100(15) -0.06390(17) 0.10388(15)
C9 C 0.82936(16) -0.08176(19) -0.01136(16)
H7 H 0.8664 -0.1857 0.0055
H8 H 0.8636 -0.0295 -0.0910
C10 C 0.88377(15) 0.11434(17) 0.24115(15)
H9 H 0.9415 0.1193 0.1741
C11 C 0.78169(15) 0.07116(17) 0.23855(15)
C12 C 0.69450(15) 0.06630(18) 0.33572(16)
H10 H 0.6242 0.0360 0.3340
C13 C 0.71015(15) 0.10523(18) 0.43392(16)
H11 H 0.6501 0.1028 0.4990
C14 C 0.81497(15) 0.14844(17) 0.43768(15)
C15 C 0.90379(15) 0.15117(16) 0.34168(15)
C16 C 1.02003(16) 0.18749(17) 0.34413(15)
C17 C 1.02807(17) 0.23134(18) 0.44722(16)
C18 C 0.93743(17) 0.22588(17) 0.53771(16)
H12 H 0.9477 0.2519 0.6061
C19 C 0.74461(16) 0.18705(19) 0.64034(16)
H13 H 0.7903 0.1839 0.7155
H14 H 0.7252 0.0990 0.6710
C20 C 0.61317(18) 0.3207(2) 0.59215(18)
H15 H 0.5672 0.3236 0.5183
H16 H 0.6318 0.4080 0.5640
H17 H 0.5558 0.3166 0.6631
C21 C 1.1337(2) 0.2796(2) 0.45873(18)
C22 C 1.2274(3) 0.3614(3) 0.5796(2)
H18 H 1.2112 0.4552 0.5045
H19 H 1.3199 0.2923 0.5820
C23 C 1.2119(3) 0.3813(3) 0.7034(2)
H20 H 1.2375 0.2865 0.7778
H21 H 1.1181 0.4425 0.7038
H22 H 1.2701 0.4280 0.7103
H26? H 0.094(5) 0.605(6) -0.073(5)
O7? O 0.4169(11) 0.047(2) 0.2991(8)
H29? H 0.384(9) 0.049(10) 0.234(9)
H30? H 0.323(10) 0.151(10) 0.318(9)
loop_
_geom_bond_atom_site_label_1
_geom_bond_atom_site_label_2
_geom_bond_site_symmetry_1
_geom_bond_site_symmetry_2
S1 C7 1_555 1_555
O1 C8 1_555 1_555
O2 C16 1_555 1_555
O3 C21 1_555 1_555
O4 C21 1_555 1_555
N1 C7 1_555 1_555
N2 C14 1_555 1_555
C1 C2 1_555 1_555
C2 H1 1_555 1_555
C3 C2 1_555 1_555
H2 C3 1_555 1_555
C4 C3 1_555 1_555
H3 C4 1_555 1_555
C5 C4 1_555 1_555
H4 C5 1_555 1_555
C6 C1 1_555 1_555
H5 C6 1_555 1_555
C7 C1 1_555 1_555
H6 C7 1_555 1_555
C8 N1 1_555 1_555
C9 S1 1_555 1_555
H7 C9 1_555 1_555
H8 C9 1_555 1_555
C10 H9 1_555 1_555
C11 N1 1_555 1_555
C12 C11 1_555 1_555
H10 C12 1_555 1_555
C13 C12 1_555 1_555
H11 C13 1_555 1_555
C14 C13 1_555 1_555
C15 C10 1_555 1_555
C16 C15 1_555 1_555
C17 C16 1_555 1_555
C18 N2 1_555 1_555
H12 C18 1_555 1_555
C19 N2 1_555 1_555
H13 C19 1_555 1_555
H14 C19 1_555 1_555
C20 C19 1_555 1_555
H15 C20 1_555 1_555
H16 C20 1_555 1_555
H17 C20 1_555 1_555
C21 C17 1_555 1_555
C22 O4 1_555 1_555
H18 C22 1_555 1_555
H19 C22 1_555 1_555
C23 C22 1_555 1_555
H20 C23 1_555 1_555
H21 C23 1_555 1_555
H22 C23 1_555 1_555
C24 H23 1_555 1_555
H24 C24 1_555 1_555
O5 C24 1_555 1_555
H25 O5 1_555 1_555
O6 H27 1_555 1_555
H28 O6 1_555 1_555
C24A C24 1_555 1_555
H23A C24A 1_555 1_555
H24A C24A 1_555 1_555
O5A C24A 1_555 1_555
H25A O5A 1_555 1_555
C5 C6 1_555 1_555
C8 C9 1_555 1_555
C10 C11 1_555 1_555
C14 C15 1_555 1_555
C17 C18 1_555 1_555

#END
