
#######################################################################
#
#                 Cambridge Crystallographic Data Centre
#                                CCDC 
#
#######################################################################
#
# If this CIF has been generated from an entry in the Cambridge 
# Structural Database, then it will include bibliographic, chemical, 
# crystal, experimental, refinement or atomic coordinate data resulting 
# from the CCDC's data processing and validation procedures.
#
#######################################################################

data_ZONBEL
_chemical_formula_moiety         'C4 H15 N3 2+,2(C6 H2 N3 O7 1-)'
_chemical_name_systematic        
'N-(2-Aminoethyl)ethane-1,2-diaminium bis(2,4,6-trinitrophenolate)'
_symmetry_cell_setting           monoclinic
_symmetry_space_group_name_H-M   'P 21/c'
_symmetry_Int_Tables_number      14
_space_group_name_Hall           '-P 2ybc'
loop_
_symmetry_equiv_pos_site_id
_symmetry_equiv_pos_as_xyz
1 x,y,z
2 -x,1/2+y,1/2-z
3 -x,-y,-z
4 x,1/2-y,1/2+z
_cell_length_a                   8.729(3)
_cell_length_b                   12.437(4)
_cell_length_c                   20.922(7)
_cell_angle_alpha                90
_cell_angle_beta                 98.154(4)
_cell_angle_gamma                90
_cell_volume                     2248.38
_exptl_crystal_colour            colorless
_exptl_crystal_description       block
_cell_formula_units_Z            4
loop_
_atom_site_label
_atom_site_type_symbol
_atom_site_fract_x
_atom_site_fract_y
_atom_site_fract_z
N1 N 0.6333(3) 0.8149(2) 0.48453(13)
H1 H 0.6136 0.8548 0.4484
H2 H 0.6361 0.7456 0.4724
N2 N 0.4012(3) 0.6544(2) 0.48061(13)
H3 H 0.4749 0.6503 0.4554
H4 H 0.3164 0.6213 0.4616
N3 N 0.8971(3) 0.6870(2) 0.47099(13)
H5 H 0.9219 0.6532 0.5085
H6 H 0.9615 0.6667 0.4438
H7 H 0.8005 0.6703 0.4544
C1 C 0.5064(4) 0.8286(3) 0.52182(17)
H8 H 0.4826 0.9044 0.5247
H9 H 0.5370 0.8016 0.5653
C2 C 0.3650(4) 0.7692(3) 0.49080(18)
H10 H 0.2845 0.7741 0.5182
H11 H 0.3268 0.8022 0.4496
C3 C 0.7848(4) 0.8443(3) 0.51801(18)
H12 H 0.7990 0.8134 0.5610
H13 H 0.7917 0.9219 0.5223
C4 C 0.9095(4) 0.8045(3) 0.48135(18)
H14 H 0.9009 0.8407 0.4399
H15 H 1.0100 0.8215 0.5053
N4 N -0.0613(3) 0.7115(2) 0.28609(14)
N5 N 0.2286(4) 0.5061(3) 0.14829(15)
N6 N 0.3170(4) 0.4279(2) 0.37667(14)
O1 O 0.1173(3) 0.6057(2) 0.39628(10)
O2 O -0.1150(3) 0.7238(2) 0.33605(12)
O3 O -0.1068(3) 0.7629(2) 0.23690(14)
O4 O 0.1533(4) 0.5528(3) 0.10258(14)
O5 O 0.3300(4) 0.4413(3) 0.14251(13)
O6 O 0.4180(4) 0.3681(3) 0.36357(14)
O7 O 0.2872(4) 0.4351(2) 0.43149(13)
C5 C 0.1336(3) 0.5790(3) 0.34024(15)
C6 C 0.0571(4) 0.6305(3) 0.28209(15)
C7 C 0.0877(4) 0.6075(3) 0.22123(16)
H16 H 0.0375 0.6451 0.1859
C8 C 0.1923(4) 0.5290(3) 0.21245(15)
C9 C 0.2666(4) 0.4706(3) 0.26417(16)
H17 H 0.3358 0.4162 0.2576
C10 C 0.2364(4) 0.4943(3) 0.32514(15)
N7 N 0.1536(3) -0.0949(3) 0.10604(13)
N8 N 0.2547(4) -0.0539(2) 0.33703(13)
N9 N 0.5096(3) 0.1925(3) 0.20661(17)
O8 O 0.3783(3) 0.0694(2) 0.09433(11)
O9 O 0.1508(4) -0.0610(3) 0.05187(12)
O10 O 0.0809(5) -0.1730(3) 0.11532(15)
O11 O 0.1543(3) -0.1208(2) 0.34085(12)
O12 O 0.3339(3) -0.0148(2) 0.38433(12)
O13 O 0.5510(5) 0.2389(3) 0.25674(17)
O14 O 0.5525(4) 0.2202(3) 0.15676(15)
C11 C 0.3460(4) 0.0464(3) 0.14868(16)
C12 C 0.2385(4) -0.0385(3) 0.16003(14)
C13 C 0.2103(4) -0.0707(3) 0.21979(15)
H18 H 0.1422 -0.1270 0.2238
C14 C 0.2837(4) -0.0190(3) 0.27405(14)
C15 C 0.3811(4) 0.0669(3) 0.26822(16)
H19 H 0.4268 0.1030 0.3050
C16 C 0.4105(4) 0.0990(3) 0.20849(16)
loop_
_geom_bond_atom_site_label_1
_geom_bond_atom_site_label_2
_geom_bond_site_symmetry_1
_geom_bond_site_symmetry_2
N1 H1 1_555 1_555
H2 N1 1_555 1_555
N2 H3 1_555 1_555
H4 N2 1_555 1_555
N3 H5 1_555 1_555
H6 N3 1_555 1_555
H7 N3 1_555 1_555
C1 N1 1_555 1_555
H8 C1 1_555 1_555
H9 C1 1_555 1_555
C2 N2 1_555 1_555
H10 C2 1_555 1_555
H11 C2 1_555 1_555
C3 N1 1_555 1_555
H12 C3 1_555 1_555
H13 C3 1_555 1_555
C4 N3 1_555 1_555
H14 C4 1_555 1_555
H15 C4 1_555 1_555
N4 O2 1_555 1_555
N5 O4 1_555 1_555
N6 O6 1_555 1_555
O1 C5 1_555 1_555
O3 N4 1_555 1_555
O5 N5 1_555 1_555
O7 N6 1_555 1_555
C5 C6 1_555 1_555
C6 N4 1_555 1_555
C7 C6 1_555 1_555
H16 C7 1_555 1_555
C8 N5 1_555 1_555
C9 C8 1_555 1_555
H17 C9 1_555 1_555
C10 N6 1_555 1_555
N7 O9 1_555 1_555
N8 O11 1_555 1_555
N9 O13 1_555 1_555
O8 C11 1_555 1_555
O10 N7 1_555 1_555
O12 N8 1_555 1_555
O14 N9 1_555 1_555
C11 C12 1_555 1_555
C12 N7 1_555 1_555
C13 C12 1_555 1_555
H18 C13 1_555 1_555
C14 N8 1_555 1_555
C15 C14 1_555 1_555
H19 C15 1_555 1_555
C16 N9 1_555 1_555
C1 C2 1_555 1_555
C3 C4 1_555 1_555
C5 C10 1_555 1_555
C7 C8 1_555 1_555
C9 C10 1_555 1_555
C11 C16 1_555 1_555
C13 C14 1_555 1_555
C15 C16 1_555 1_555

#END
