
#######################################################################
#
#                 Cambridge Crystallographic Data Centre
#                                CCDC 
#
#######################################################################
#
# If this CIF has been generated from an entry in the Cambridge 
# Structural Database, then it will include bibliographic, chemical, 
# crystal, experimental, refinement or atomic coordinate data resulting 
# from the CCDC's data processing and validation procedures.
#
#######################################################################

data_ZONNOH
_chemical_formula_moiety         'C30 H27 N1 O4'
_chemical_name_systematic        
'dimethyl 8-t-butyl-2a,13b-dihydrobenzo[7,8]indolizino[6,5,4,3-def]phenanthridine-1,2-dicarboxylate'
_symmetry_cell_setting           monoclinic
_symmetry_space_group_name_H-M   'P 21/c'
_symmetry_Int_Tables_number      14
_space_group_name_Hall           '-P 2ybc'
loop_
_symmetry_equiv_pos_site_id
_symmetry_equiv_pos_as_xyz
1 x,y,z
2 -x,1/2+y,1/2-z
3 -x,-y,-z
4 x,1/2-y,1/2+z
_cell_length_a                   16.322(6)
_cell_length_b                   9.073(3)
_cell_length_c                   16.857(6)
_cell_angle_alpha                90
_cell_angle_beta                 114.032(4)
_cell_angle_gamma                90
_cell_volume                     2279.96
_exptl_crystal_colour            yellow
_exptl_crystal_description       block
_cell_formula_units_Z            4
_exptl_crystal_recrystallization_method dichloromethane
loop_
_atom_site_label
_atom_site_type_symbol
_atom_site_fract_x
_atom_site_fract_y
_atom_site_fract_z
O1 O 0.19959(12) 0.0534(2) 0.03282(12)
O2 O 0.29801(12) -0.0634(2) -0.12754(12)
N1 N 0.35158(14) 0.3915(2) -0.01969(13)
O3 O 0.31154(12) -0.10036(19) 0.04219(12)
C1 C 0.35728(17) 0.4194(3) -0.18428(16)
C2 C 0.33567(17) 0.3062(3) 0.04765(16)
H1 H 0.3924 0.3081 0.1017
C3 C 0.26297(17) 0.3695(3) 0.06950(16)
O4 O 0.44327(13) -0.0229(2) -0.09976(13)
C4 C 0.12194(17) 0.4954(3) 0.02435(17)
H2 H 0.0720 0.5428 -0.0193
C5 C 0.37593(18) 0.0104(3) -0.09148(17)
C6 C 0.41067(17) 0.2908(3) -0.04125(16)
H3 H 0.4703 0.2905 0.0094
C7 C 0.32394(16) 0.1485(3) 0.01009(16)
C8 C 0.19135(17) 0.4624(3) -0.24842(16)
H4 H 0.1926 0.4677 -0.3042
C9 C 0.18926(17) 0.4431(3) -0.08436(16)
C10 C 0.26973(17) 0.4211(3) -0.09349(16)
C11 C 0.27122(17) 0.4354(3) -0.17604(16)
C12 C 0.18944(17) 0.4350(3) 0.00346(16)
C13 C 0.36640(17) 0.1402(3) -0.04262(16)
C14 C 0.27140(17) 0.0315(3) 0.02960(16)
C15 C 0.03519(19) 0.6512(3) -0.36726(18)
H5 H -0.0195 0.6702 -0.4195
H6 H 0.0862 0.6404 -0.3834
H7 H 0.0463 0.7338 -0.3267
C16 C 0.10988(17) 0.4819(3) -0.24133(16)
C17 C 0.45454(18) 0.4547(3) -0.25932(18)
H8 H 0.4648 0.4953 -0.3064
C18 C 0.42570(17) 0.3409(3) -0.11919(17)
C19 C 0.50673(18) 0.3162(3) -0.12576(18)
H9 H 0.5528 0.2621 -0.0818
C20 C 0.02365(18) 0.5092(3) -0.32379(17)
C21 C 0.26877(18) 0.3640(3) 0.15413(17)
H10 H 0.3202 0.3222 0.1989
C22 C 0.12732(18) 0.4864(3) 0.10822(17)
H11 H 0.0806 0.5270 0.1214
C23 C 0.52046(18) 0.3704(3) -0.19656(18)
H12 H 0.5750 0.3499 -0.2021
C24 C 0.11095(17) 0.4731(3) -0.15856(16)
H13 H 0.0564 0.4879 -0.1520
C25 C 0.37389(17) 0.4788(3) -0.25267(17)
H14 H 0.3290 0.5368 -0.2954
C26 C 0.25577(19) -0.2228(3) 0.04340(19)
H15 H 0.2383 -0.2116 0.0922
H16 H 0.2892 -0.3150 0.0500
H17 H 0.2019 -0.2252 -0.0112
C27 C 0.19977(18) 0.4192(3) 0.17339(17)
H18 H 0.2021 0.4110 0.2305
C28 C 0.00778(19) 0.3798(3) -0.38699(18)
H19 H -0.0027 0.2896 -0.3605
H20 H 0.0606 0.3667 -0.4000
H21 H -0.0447 0.4005 -0.4409
C29 C -0.05896(18) 0.5271(4) -0.30393(18)
H22 H -0.0500 0.6102 -0.2641
H23 H -0.0684 0.4368 -0.2769
H24 H -0.1116 0.5459 -0.3580
C30 C 0.3017(2) -0.1997(3) -0.1700(2)
H25 H 0.3187 -0.1793 -0.2183
H26 H 0.2427 -0.2472 -0.1922
H27 H 0.3462 -0.2653 -0.1283
loop_
_geom_bond_atom_site_label_1
_geom_bond_atom_site_label_2
_geom_bond_site_symmetry_1
_geom_bond_site_symmetry_2
O1 C14 1_555 1_555
O2 C5 1_555 1_555
N1 C2 1_555 1_555
O3 C14 1_555 1_555
C1 C11 1_555 1_555
C2 H1 1_555 1_555
C3 C2 1_555 1_555
O4 C5 1_555 1_555
C4 H2 1_555 1_555
C5 C13 1_555 1_555
C6 N1 1_555 1_555
H3 C6 1_555 1_555
C7 C2 1_555 1_555
C8 H4 1_555 1_555
C9 C10 1_555 1_555
C10 N1 1_555 1_555
C11 C8 1_555 1_555
C12 C3 1_555 1_555
C13 C6 1_555 1_555
C14 C7 1_555 1_555
C15 H5 1_555 1_555
H6 C15 1_555 1_555
H7 C15 1_555 1_555
C16 C8 1_555 1_555
C17 H8 1_555 1_555
C18 C1 1_555 1_555
C19 C18 1_555 1_555
H9 C19 1_555 1_555
C20 C15 1_555 1_555
C21 C3 1_555 1_555
H10 C21 1_555 1_555
C22 C4 1_555 1_555
H11 C22 1_555 1_555
C23 C17 1_555 1_555
H12 C23 1_555 1_555
C24 C9 1_555 1_555
H13 C24 1_555 1_555
C25 C1 1_555 1_555
H14 C25 1_555 1_555
C26 O3 1_555 1_555
H15 C26 1_555 1_555
H16 C26 1_555 1_555
H17 C26 1_555 1_555
C27 C21 1_555 1_555
H18 C27 1_555 1_555
C28 C20 1_555 1_555
H19 C28 1_555 1_555
H20 C28 1_555 1_555
H21 C28 1_555 1_555
C29 C20 1_555 1_555
H22 C29 1_555 1_555
H23 C29 1_555 1_555
H24 C29 1_555 1_555
C30 O2 1_555 1_555
H25 C30 1_555 1_555
H26 C30 1_555 1_555
H27 C30 1_555 1_555
C4 C12 1_555 1_555
C6 C18 1_555 1_555
C7 C13 1_555 1_555
C9 C12 1_555 1_555
C10 C11 1_555 1_555
C16 C20 1_555 1_555
C16 C24 1_555 1_555
C17 C25 1_555 1_555
C19 C23 1_555 1_555
C22 C27 1_555 1_555

#END
