
#######################################################################
#
#                 Cambridge Crystallographic Data Centre
#                                CCDC 
#
#######################################################################
#
# If this CIF has been generated from an entry in the Cambridge 
# Structural Database, then it will include bibliographic, chemical, 
# crystal, experimental, refinement or atomic coordinate data resulting 
# from the CCDC's data processing and validation procedures.
#
#######################################################################

data_ZONQUQ
_chemical_formula_moiety         'C42 H36 N4 S2'
_chemical_name_systematic        
2,2'-(Indeno[2,1-a]indene-5,10-diylidenebis(3-hexylthiene-5,2-diylidene))dimalononitrile
_symmetry_cell_setting           triclinic
_symmetry_space_group_name_H-M   'P -1'
_symmetry_Int_Tables_number      2
_space_group_name_Hall           '-P 1'
loop_
_symmetry_equiv_pos_site_id
_symmetry_equiv_pos_as_xyz
1 x,y,z
2 -x,-y,-z
_cell_length_a                   7.2133(2)
_cell_length_b                   14.5623(4)
_cell_length_c                   16.4041(5)
_cell_angle_alpha                91.618(7)
_cell_angle_beta                 97.367(7)
_cell_angle_gamma                98.760(7)
_cell_volume                     1686.96
_exptl_crystal_colour            black
_exptl_crystal_description       platelet
_cell_formula_units_Z            2
loop_
_atom_site_label
_atom_site_type_symbol
_atom_site_fract_x
_atom_site_fract_y
_atom_site_fract_z
S1 S 0.18316(18) 1.06406(8) 0.41851(8)
S2 S 0.26645(19) 0.46732(8) 0.55664(8)
N1 N 0.2062(8) 1.3115(3) 0.3806(3)
N2 N -0.1290(8) 1.2014(4) 0.1559(3)
N3 N 0.2866(7) 0.2233(3) 0.5791(3)
N4 N 0.2419(7) 0.2958(3) 0.8292(3)
C1 C 0.2317(7) 0.8858(3) 0.4610(3)
C2 C 0.3012(6) 0.9096(3) 0.5491(3)
C3 C 0.3439(7) 0.9945(3) 0.5932(3)
C4 C 0.4182(7) 0.9973(3) 0.6752(3)
C5 C 0.4538(7) 0.9175(3) 0.7136(3)
C6 C 0.4092(7) 0.8308(3) 0.6707(3)
C7 C 0.3281(7) 0.8258(3) 0.5893(3)
C8 C 0.2762(7) 0.7501(3) 0.5259(3)
C9 C 0.2676(7) 0.6500(3) 0.5147(3)
C10 C 0.2473(7) 0.6310(3) 0.4249(3)
C11 C 0.2497(7) 0.5503(3) 0.3791(3)
C12 C 0.2431(7) 0.5529(3) 0.2944(3)
C13 C 0.2363(7) 0.6357(3) 0.2559(3)
C14 C 0.2290(7) 0.7168(3) 0.3005(3)
C15 C 0.2282(7) 0.7149(3) 0.3847(3)
C16 C 0.2355(7) 0.7874(3) 0.4505(3)
C17 C 0.1613(7) 0.9431(3) 0.4034(3)
C18 C 0.0601(7) 0.9170(3) 0.3238(3)
C19 C 0.0090(7) 0.9861(3) 0.2767(3)
C20 C 0.0733(7) 1.0761(3) 0.3198(3)
C21 C -0.0874(8) 0.9710(4) 0.1893(3)
C22 C 0.0513(9) 0.9848(5) 0.1259(3)
C23 C 0.1806(11) 0.9094(6) 0.1301(4)
C24 C 0.2969(12) 0.9073(6) 0.0692(5)
C25 C 0.4260(12) 0.8330(6) 0.0787(4)
C26 C 0.5665(12) 0.8490(6) 0.0194(5)
C27 C 0.0553(8) 1.1637(3) 0.2931(3)
C28 C -0.0450(8) 1.1819(4) 0.2160(4)
C29 C 0.1382(8) 1.2447(4) 0.3432(4)
C30 C 0.2639(7) 0.5860(3) 0.5752(3)
C31 C 0.2431(7) 0.6016(3) 0.6596(3)
C32 C 0.2400(7) 0.5265(3) 0.7071(3)
C33 C 0.2547(7) 0.4442(3) 0.6591(3)
C34 C 0.2211(8) 0.5303(4) 0.7972(3)
C35 C 0.4094(8) 0.5399(4) 0.8545(3)
C36 C 0.5315(9) 0.6334(4) 0.8515(4)
C37 C 0.6979(11) 0.6543(6) 0.9185(5)
C38 C 0.8342(13) 0.5962(7) 0.9228(6)
C39 C 1.0049(11) 0.6272(6) 0.9916(5)
C40 C 0.2598(7) 0.3542(3) 0.6832(3)
C41 C 0.2512(8) 0.3253(3) 0.7657(4)
C42 C 0.2750(8) 0.2820(4) 0.6251(4)
H1 H 0.32233 1.05009 0.56721
H2 H 0.44525 1.0552 0.7058
H3 H 0.50911 0.92149 0.76964
H4 H 0.43435 0.77601 0.69724
H5 H 0.25578 0.49335 0.4055
H6 H 0.24336 0.49742 0.26265
H7 H 0.23656 0.637 0.19802
H8 H 0.22452 0.77344 0.27354
H9 H 0.02981 0.85363 0.30456
H10 H -0.17923 1.01485 0.17949
H11 H -0.159 0.90704 0.18155
H12 H 0.13025 1.04685 0.13616
H13 H -0.02045 0.98249 0.07009
H14 H 0.26175 0.91752 0.18405
H15 H 0.09939 0.84789 0.12852
H16 H 0.37664 0.96904 0.06936
H17 H 0.21674 0.89641 0.01509
H18 H 0.49239 0.8364 0.13561
H19 H 0.34959 0.77035 0.06753
H20 H 0.50175 0.83523 -0.03687
H21 H 0.66201 0.80821 0.03091
H22 H 0.62817 0.91405 0.02513
H23 H 0.23207 0.66131 0.68151
H24 H 0.13902 0.47298 0.80973
H25 H 0.15707 0.58368 0.80924
H26 H 0.3829 0.53045 0.91168
H27 H 0.48023 0.49041 0.83889
H28 H 0.5795 0.63685 0.79759
H29 H 0.45128 0.68246 0.85473
H30 H 0.88238 0.59401 0.86905
H31 H 0.77419 0.53252 0.93284
H32 H 1.08146 0.68394 0.97607
H33 H 1.08281 0.57772 0.9983
H34 H 0.95749 0.63955 1.04356
H35 H 0.76182 0.71836 0.91223
H36 H 0.64799 0.65392 0.97193
loop_
_geom_bond_atom_site_label_1
_geom_bond_atom_site_label_2
_geom_bond_site_symmetry_1
_geom_bond_site_symmetry_2
S1 C17 1_555 1_555
S2 C30 1_555 1_555
N1 C29 1_555 1_555
N2 C28 1_555 1_555
N3 C42 1_555 1_555
N4 C41 1_555 1_555
C1 C2 1_555 1_555
C2 C3 1_555 1_555
C3 C4 1_555 1_555
C4 C5 1_555 1_555
C5 C6 1_555 1_555
C6 C7 1_555 1_555
C7 C2 1_555 1_555
C8 C7 1_555 1_555
C9 C8 1_555 1_555
C10 C9 1_555 1_555
C11 C10 1_555 1_555
C12 C11 1_555 1_555
C13 C12 1_555 1_555
C14 C13 1_555 1_555
C15 C10 1_555 1_555
C16 C1 1_555 1_555
C17 C1 1_555 1_555
C18 C17 1_555 1_555
C19 C18 1_555 1_555
C20 S1 1_555 1_555
C21 C19 1_555 1_555
C22 C21 1_555 1_555
C23 C22 1_555 1_555
C24 C23 1_555 1_555
C25 C24 1_555 1_555
C26 C25 1_555 1_555
C27 C20 1_555 1_555
C28 C27 1_555 1_555
C29 C27 1_555 1_555
C30 C9 1_555 1_555
C31 C30 1_555 1_555
C32 C31 1_555 1_555
C33 S2 1_555 1_555
C34 C32 1_555 1_555
C35 C34 1_555 1_555
C36 C35 1_555 1_555
C37 C36 1_555 1_555
C38 C37 1_555 1_555
C39 C38 1_555 1_555
C40 C33 1_555 1_555
C41 C40 1_555 1_555
C42 C40 1_555 1_555
H1 C3 1_555 1_555
H2 C4 1_555 1_555
H3 C5 1_555 1_555
H4 C6 1_555 1_555
H5 C11 1_555 1_555
H6 C12 1_555 1_555
H7 C13 1_555 1_555
H8 C14 1_555 1_555
H9 C18 1_555 1_555
H10 C21 1_555 1_555
H11 C21 1_555 1_555
H12 C22 1_555 1_555
H13 C22 1_555 1_555
H14 C23 1_555 1_555
H15 C23 1_555 1_555
H16 C24 1_555 1_555
H17 C24 1_555 1_555
H18 C25 1_555 1_555
H19 C25 1_555 1_555
H20 C26 1_555 1_555
H21 C26 1_555 1_555
H22 C26 1_555 1_555
H23 C31 1_555 1_555
H24 C34 1_555 1_555
H25 C34 1_555 1_555
H26 C35 1_555 1_555
H27 C35 1_555 1_555
H28 C36 1_555 1_555
H29 C36 1_555 1_555
H30 C38 1_555 1_555
H31 C38 1_555 1_555
H32 C39 1_555 1_555
H33 C39 1_555 1_555
H34 C39 1_555 1_555
H35 C37 1_555 1_555
H36 C37 1_555 1_555
C8 C16 1_555 1_555
C14 C15 1_555 1_555
C15 C16 1_555 1_555
C19 C20 1_555 1_555
C32 C33 1_555 1_555

#END
