
#######################################################################
#
#                 Cambridge Crystallographic Data Centre
#                                CCDC 
#
#######################################################################
#
# If this CIF has been generated from an entry in the Cambridge 
# Structural Database, then it will include bibliographic, chemical, 
# crystal, experimental, refinement or atomic coordinate data resulting 
# from the CCDC's data processing and validation procedures.
#
#######################################################################

data_ZONSAY
_chemical_formula_moiety         'C27 H19 F5 N4'
_chemical_name_systematic        
(3Z)-2-[4-(Dimethylamino)phenyl]-3-(3,3-dimethylbut-1-yn-1-yl)-4-(pentafluorophenyl)buta-1,3-diene-1,1,4-tricarbonitrile
_symmetry_cell_setting           monoclinic
_symmetry_space_group_name_H-M   'P 21/c'
_symmetry_Int_Tables_number      14
_space_group_name_Hall           '-P 2ybc'
loop_
_symmetry_equiv_pos_site_id
_symmetry_equiv_pos_as_xyz
1 x,y,z
2 -x,1/2+y,1/2-z
3 -x,-y,-z
4 x,1/2-y,1/2+z
_cell_length_a                   11.380(3)
_cell_length_b                   18.345(5)
_cell_length_c                   14.420(3)
_cell_angle_alpha                90
_cell_angle_beta                 128.090(13)
_cell_angle_gamma                90
_cell_volume                     2369.32
_exptl_crystal_colour            orange
_exptl_crystal_description       needle
_cell_formula_units_Z            4
loop_
_atom_site_label
_atom_site_type_symbol
_atom_site_fract_x
_atom_site_fract_y
_atom_site_fract_z
F1 F 0.50707(10) -0.21015(5) 0.36819(8)
F2 F 0.22879(10) -0.26509(5) 0.20926(8)
F3 F 0.54446(9) -0.06749(6) 0.42988(8)
F4 F 0.30472(10) 0.01985(5) 0.33230(8)
F5 F -0.01050(8) -0.18014(4) 0.11449(7)
N1 N -0.67682(13) -0.07735(7) -0.39611(10)
N2 N -0.39180(15) 0.19621(7) 0.02018(12)
N3 N -0.02056(16) 0.10196(7) 0.34784(12)
N4 N 0.03164(15) 0.08524(7) 0.06444(11)
C1 C -0.81295(16) -0.03613(9) -0.47949(13)
H1 H -0.8749 -0.0362 -0.4536
H2 H -0.8684 -0.0586 -0.5576
H3 H -0.7873 0.0142 -0.4834
C2 C -0.57744(15) -0.05587(8) -0.28261(12)
C3 C -0.44427(15) -0.09499(8) -0.20216(12)
H4 H -0.4260 -0.1385 -0.2272
C4 C -0.34050(15) -0.07146(8) -0.08832(12)
H5 H -0.2521 -0.0993 -0.0366
C5 C -0.36064(15) -0.00727(7) -0.04535(12)
C6 C -0.24461(15) 0.01608(7) 0.07339(12)
C7 C -0.11671(15) -0.03631(7) 0.14947(11)
C8 C 0.00980(15) -0.02646(7) 0.16200(11)
C9 C 0.13903(15) -0.07696(7) 0.22137(11)
C10 C 0.12429(15) -0.15054(8) 0.19300(11)
C11 C 0.24658(16) -0.19512(8) 0.24105(12)
C12 C 0.38843(16) -0.16699(9) 0.32075(13)
C13 C -0.60185(15) 0.00674(8) -0.23872(13)
H6 H -0.6926 0.0331 -0.2892
C14 C -0.49724(15) 0.02995(8) -0.12503(12)
H7 H -0.5171 0.0723 -0.0990
C15 C -0.64425(16) -0.14035(8) -0.43791(13)
H8 H -0.5478 -0.1334 -0.4219
H9 H -0.7228 -0.1460 -0.5229
H10 H -0.6402 -0.1842 -0.3971
C16 C -0.23179(15) 0.08141(7) 0.12556(12)
C17 C -0.32506(16) 0.14379(8) 0.06511(12)
C18 C -0.11331(17) 0.09263(8) 0.24904(13)
C19 C -0.13740(14) -0.09620(7) 0.20037(12)
C20 C -0.15076(15) -0.14893(8) 0.24194(12)
C21 C -0.15744(16) -0.21664(8) 0.29323(13)
C22 C -0.2547(2) -0.20602(9) 0.33159(16)
H11 H -0.2145 -0.1661 0.3887
H12 H -0.2553 -0.2510 0.3680
H13 H -0.3568 -0.1942 0.2627
C23 C -0.22223(18) -0.27665(8) 0.19944(14)
H14 H -0.3240 -0.2634 0.1314
H15 H -0.2242 -0.3228 0.2326
H16 H -0.1599 -0.2820 0.1744
C24 C 0.00269(18) -0.23577(9) 0.40074(14)
H17 H 0.0659 -0.2404 0.3763
H18 H 0.0023 -0.2820 0.4345
H19 H 0.0420 -0.1971 0.4599
C25 C 0.02114(16) 0.03648(8) 0.10844(12)
C26 C 0.28390(16) -0.05066(8) 0.30126(12)
C27 C 0.40699(16) -0.09451(9) 0.35078(12)
loop_
_geom_bond_atom_site_label_1
_geom_bond_atom_site_label_2
_geom_bond_site_symmetry_1
_geom_bond_site_symmetry_2
F1 C12 1_555 1_555
F2 C11 1_555 1_555
F3 C27 1_555 1_555
F4 C26 1_555 1_555
F5 C10 1_555 1_555
N1 C1 1_555 1_555
N2 C17 1_555 1_555
N3 C18 1_555 1_555
N4 C25 1_555 1_555
C1 H1 1_555 1_555
H2 C1 1_555 1_555
H3 C1 1_555 1_555
C2 N1 1_555 1_555
C3 C2 1_555 1_555
H4 C3 1_555 1_555
C4 C3 1_555 1_555
H5 C4 1_555 1_555
C5 C4 1_555 1_555
C6 C5 1_555 1_555
C7 C6 1_555 1_555
C8 C7 1_555 1_555
C9 C8 1_555 1_555
C10 C9 1_555 1_555
C11 C10 1_555 1_555
C12 C11 1_555 1_555
C13 C2 1_555 1_555
H6 C13 1_555 1_555
C14 C5 1_555 1_555
H7 C14 1_555 1_555
C15 N1 1_555 1_555
H8 C15 1_555 1_555
H9 C15 1_555 1_555
H10 C15 1_555 1_555
C16 C6 1_555 1_555
C17 C16 1_555 1_555
C18 C16 1_555 1_555
C19 C7 1_555 1_555
C20 C19 1_555 1_555
C21 C20 1_555 1_555
C22 C21 1_555 1_555
H11 C22 1_555 1_555
H12 C22 1_555 1_555
H13 C22 1_555 1_555
C23 C21 1_555 1_555
H14 C23 1_555 1_555
H15 C23 1_555 1_555
H16 C23 1_555 1_555
C24 C21 1_555 1_555
H17 C24 1_555 1_555
H18 C24 1_555 1_555
H19 C24 1_555 1_555
C25 C8 1_555 1_555
C26 C9 1_555 1_555
C27 C12 1_555 1_555
C13 C14 1_555 1_555
C26 C27 1_555 1_555

#END
