
#######################################################################
#
#                 Cambridge Crystallographic Data Centre
#                                CCDC 
#
#######################################################################
#
# If this CIF has been generated from an entry in the Cambridge 
# Structural Database, then it will include bibliographic, chemical, 
# crystal, experimental, refinement or atomic coordinate data resulting 
# from the CCDC's data processing and validation procedures.
#
#######################################################################

data_ZONSUS
_chemical_formula_moiety         'C20 H20 O2'
_chemical_name_systematic        
(E)-1,4-bis(2,4-Dimethylphenyl)but-2-ene-1,4-dione
_symmetry_cell_setting           orthorhombic
_symmetry_space_group_name_H-M   'P 21 21 21'
_symmetry_Int_Tables_number      19
_space_group_name_Hall           'P 2ac 2ab'
loop_
_symmetry_equiv_pos_site_id
_symmetry_equiv_pos_as_xyz
1 x,y,z
2 1/2-x,-y,1/2+z
3 1/2+x,1/2-y,-z
4 -x,1/2+y,1/2-z
_cell_length_a                   7.3593(4)
_cell_length_b                   13.8287(7)
_cell_length_c                   15.8800(8)
_cell_angle_alpha                90
_cell_angle_beta                 90
_cell_angle_gamma                90
_cell_volume                     1616.1
_exptl_crystal_colour            yellow
_exptl_crystal_description       plate
_cell_formula_units_Z            4
_exptl_crystal_recrystallization_method 'ethyl acetate'
loop_
_atom_site_label
_atom_site_type_symbol
_atom_site_fract_x
_atom_site_fract_y
_atom_site_fract_z
O1 O 0.6511(3) 0.47030(14) 1.07703(15)
O2 O 0.5115(5) 0.77140(14) 0.91662(15)
C1 C 0.5854(4) 0.93722(18) 1.02411(17)
C2 C 0.4875(4) 0.31192(18) 0.97926(17)
C3 C 0.5859(4) 1.00936(19) 1.08469(18)
H1 H 0.6047 1.0728 1.0673
C4 C 0.4533(4) 0.23949(18) 0.92116(17)
H2 H 0.4063 0.1813 0.9409
C5 C 0.5809(4) 0.4114(2) 0.86181(19)
H3 H 0.6219 0.4703 0.8410
C6 C 0.5527(4) 0.40101(17) 0.94821(18)
C7 C 0.4849(4) 0.24831(19) 0.83547(18)
C8 C 0.5946(4) 0.4828(2) 1.0054(2)
C9 C 0.5959(4) 0.65944(19) 1.0201(2)
H4 H 0.6491 0.6515 1.0728
C10 C 0.5610(4) 0.84078(18) 1.05080(18)
C11 C 0.5497(5) 0.3368(2) 0.80669(18)
H5 H 0.5720 0.3455 0.7496
C12 C 0.5598(4) 0.9922(2) 1.16969(19)
C13 C 0.6146(5) 0.9653(2) 0.93328(18)
H6 H 0.5034 0.9568 0.9025
H7 H 0.7073 0.9250 0.9092
H8 H 0.6517 1.0317 0.9303
C14 C 0.5547(5) 0.7595(2) 0.9901(2)
C15 C 0.5361(5) 0.8236(2) 1.1362(2)
H9 H 0.5208 0.7603 1.1547
C16 C 0.5602(4) 0.58314(19) 0.9752(2)
H10 H 0.5109 0.5916 0.9218
C17 C 0.4501(6) 0.1661(2) 0.7761(2)
H11 H 0.5637 0.1378 0.7595
H12 H 0.3876 0.1897 0.7272
H13 H 0.3768 0.1182 0.8036
C18 C 0.4506(5) 0.29331(19) 1.07104(17)
H14 H 0.3767 0.2365 1.0767
H15 H 0.3879 0.3477 1.0948
H16 H 0.5635 0.2838 1.1001
C19 C 0.5596(6) 1.0742(3) 1.2327(2)
H17 H 0.5207 1.0505 1.2866
H18 H 0.4779 1.1239 1.2140
H19 H 0.6800 1.1003 1.2375
C20 C 0.5335(5) 0.8974(2) 1.19432(19)
H20 H 0.5137 0.8834 1.2509
loop_
_geom_bond_atom_site_label_1
_geom_bond_atom_site_label_2
_geom_bond_site_symmetry_1
_geom_bond_site_symmetry_2
O1 C8 1_555 1_555
O2 C14 1_555 1_555
C1 C3 1_555 1_555
C2 C4 1_555 1_555
C3 H1 1_555 1_555
C4 H2 1_555 1_555
C5 H3 1_555 1_555
C6 C2 1_555 1_555
C7 C4 1_555 1_555
C8 C6 1_555 1_555
C9 H4 1_555 1_555
C10 C1 1_555 1_555
C11 C5 1_555 1_555
H5 C11 1_555 1_555
C12 C3 1_555 1_555
C13 C1 1_555 1_555
H6 C13 1_555 1_555
H7 C13 1_555 1_555
H8 C13 1_555 1_555
C14 C9 1_555 1_555
C15 C10 1_555 1_555
H9 C15 1_555 1_555
C16 C8 1_555 1_555
H10 C16 1_555 1_555
C17 C7 1_555 1_555
H11 C17 1_555 1_555
H12 C17 1_555 1_555
H13 C17 1_555 1_555
C18 C2 1_555 1_555
H14 C18 1_555 1_555
H15 C18 1_555 1_555
H16 C18 1_555 1_555
C19 C12 1_555 1_555
H17 C19 1_555 1_555
H18 C19 1_555 1_555
H19 C19 1_555 1_555
C20 C12 1_555 1_555
H20 C20 1_555 1_555
C5 C6 1_555 1_555
C7 C11 1_555 1_555
C9 C16 1_555 1_555
C10 C14 1_555 1_555
C15 C20 1_555 1_555

#END
