
#######################################################################
#
#                 Cambridge Crystallographic Data Centre
#                                CCDC 
#
#######################################################################
#
# If this CIF has been generated from an entry in the Cambridge 
# Structural Database, then it will include bibliographic, chemical, 
# crystal, experimental, refinement or atomic coordinate data resulting 
# from the CCDC's data processing and validation procedures.
#
#######################################################################

data_ZONVED
_chemical_formula_moiety         'C18 H39 P3'
_chemical_name_systematic        
1,5,9-Triphospha-1,5,9-tris(2-propyl)-cyclododecane
_symmetry_cell_setting           triclinic
_symmetry_space_group_name_H-M   'P -1'
_symmetry_Int_Tables_number      2
_space_group_name_Hall           '-P 1'
loop_
_symmetry_equiv_pos_site_id
_symmetry_equiv_pos_as_xyz
1 x,y,z
2 -x,-y,-z
_cell_length_a                   5.5248(8)
_cell_length_b                   12.2124(10)
_cell_length_c                   16.857(2)
_cell_angle_alpha                107.81(4)
_cell_angle_beta                 94.08(4)
_cell_angle_gamma                95.70(2)
_cell_volume                     1071.29
_exptl_crystal_colour            white
_chemical_melting_point          114.8-115.3deg.C
_cell_formula_units_Z            2
loop_
_atom_site_label
_atom_site_type_symbol
_atom_site_fract_x
_atom_site_fract_y
_atom_site_fract_z
P1 P 0.1263(2) 0.6692(1) 0.3021(1)
P2 P -0.1969(2) 1.1046(1) 0.3438(1)
P3 P -0.2108(2) 0.7952(1) 0.0682(1)
C1 C -0.0574(8) 0.7776(4) 0.3617(3)
C2 C -0.0261(7) 0.8916(4) 0.3429(3)
C3 C -0.2121(8) 0.9730(5) 0.3780(3)
C4 C -0.2509(8) 1.0385(4) 0.2285(3)
C5 C -0.4680(8) 0.9431(5) 0.1889(3)
C6 C -0.4642(8) 0.8814(5) 0.0953(3)
C7 C -0.3298(9) 0.6549(5) 0.0819(3)
C8 C -0.2606(8) 0.6469(5) 0.1690(3)
C9 C 0.0152(8) 0.6572(4) 0.1944(3)
C10 C -0.0312(9) 0.5364(4) 0.3166(3)
C11 C 0.0499(9) 0.4280(5) 0.2556(4)
C12 C 0.0211(9) 0.5372(5) 0.4050(4)
C13 C -0.4961(8) 1.1528(4) 0.3689(3)
C14 C -0.5192(9) 1.1853(4) 0.4621(3)
C15 C -0.5374(8) 1.2557(5) 0.3397(4)
C16 C -0.2493(8) 0.7519(5) -0.0482(3)
C17 C -0.1452(8) 0.8502(5) -0.0777(3)
C18 C -0.5104(9) 0.7039(5) -0.0916(4)
H1 H -0.2287(8) 0.7456(4) 0.3494(3)
H2 H -0.0125(8) 0.7926(4) 0.4211(3)
H3 H -0.0379(7) 0.8753(4) 0.2826(3)
H4 H 0.1368(7) 0.9311(4) 0.3657(3)
H5 H -0.1865(8) 0.9972(4) 0.4387(3)
H6 H -0.3750(8) 0.9306(4) 0.3609(3)
H7 H -0.2694(8) 1.1007(4) 0.2049(3)
H8 H -0.1034(8) 1.0065(4) 0.2097(3)
H9 H -0.4685(8) 0.8860(5) 0.2182(3)
H10 H -0.6188(8) 0.9775(5) 0.1971(3)
H11 H -0.4567(8) 0.9391(5) 0.0665(3)
H12 H -0.6171(8) 0.8307(5) 0.0744(3)
H13 H -0.5067(9) 0.6436(5) 0.0708(3)
H14 H -0.2677(9) 0.5926(5) 0.0408(3)
H15 H -0.3370(8) 0.5732(5) 0.1715(3)
H16 H -0.3278(8) 0.7077(5) 0.2097(3)
H17 H 0.0921(8) 0.7247(4) 0.1827(3)
H18 H 0.0753(8) 0.5900(4) 0.1576(3)
H19 H -0.2080(9) 0.5346(4) 0.3044(3)
H20 H 0.0081(48) 0.4266(14) 0.1990(4)
H21 H -0.0314(44) 0.3598(5) 0.2640(13)
H22 H 0.2237(13) 0.4298(14) 0.2657(13)
H23 H -0.0590(47) 0.5961(18) 0.4414(4)
H24 H 0.1944(10) 0.5531(28) 0.4210(8)
H25 H -0.0386(53) 0.4629(9) 0.4094(5)
H26 H -0.6243(8) 1.0889(4) 0.3396(3)
H27 H -0.5065(49) 1.1186(8) 0.4802(5)
H28 H -0.6749(23) 1.2119(23) 0.4730(4)
H29 H -0.3908(32) 1.2458(17) 0.4920(3)
H30 H -0.5301(56) 1.2348(9) 0.2803(4)
H31 H -0.4129(37) 1.3192(9) 0.3678(14)
H32 H -0.6952(28) 1.2782(19) 0.3526(19)
H33 H -0.1486(8) 0.6893(5) -0.0680(3)
H34 H 0.0212(20) 0.8758(18) -0.0534(15)
H35 H -0.2404(36) 0.9134(11) -0.0609(17)
H36 H -0.1502(51) 0.8238(9) -0.1377(3)
H37 H -0.5696(28) 0.6377(20) -0.0759(19)
H38 H -0.5079(14) 0.6814(31) -0.1513(4)
H39 H -0.6164(18) 0.7627(11) -0.0747(19)
loop_
_geom_bond_atom_site_label_1
_geom_bond_atom_site_label_2
_geom_bond_site_symmetry_1
_geom_bond_site_symmetry_2
P1 C1 1_555 1_555
P2 C3 1_555 1_555
P3 C6 1_555 1_555
C1 C2 1_555 1_555
C2 C3 1_555 1_555
C3 H5 1_555 1_555
C4 P2 1_555 1_555
C5 C4 1_555 1_555
C6 C5 1_555 1_555
C7 P3 1_555 1_555
C8 C7 1_555 1_555
C9 P1 1_555 1_555
C10 P1 1_555 1_555
C11 C10 1_555 1_555
C12 C10 1_555 1_555
C13 P2 1_555 1_555
C14 C13 1_555 1_555
C15 C13 1_555 1_555
C16 P3 1_555 1_555
C17 C16 1_555 1_555
C18 C16 1_555 1_555
H1 C1 1_555 1_555
H2 C1 1_555 1_555
H3 C2 1_555 1_555
H4 C2 1_555 1_555
H6 C3 1_555 1_555
H7 C4 1_555 1_555
H8 C4 1_555 1_555
H9 C5 1_555 1_555
H10 C5 1_555 1_555
H11 C6 1_555 1_555
H12 C6 1_555 1_555
H13 C7 1_555 1_555
H14 C7 1_555 1_555
H15 C8 1_555 1_555
H16 C8 1_555 1_555
H17 C9 1_555 1_555
H18 C9 1_555 1_555
H19 C10 1_555 1_555
H20 C11 1_555 1_555
H21 C11 1_555 1_555
H22 C11 1_555 1_555
H23 C12 1_555 1_555
H24 C12 1_555 1_555
H25 C12 1_555 1_555
H26 C13 1_555 1_555
H27 C14 1_555 1_555
H28 C14 1_555 1_555
H29 C14 1_555 1_555
H30 C15 1_555 1_555
H31 C15 1_555 1_555
H32 C15 1_555 1_555
H33 C16 1_555 1_555
H34 C17 1_555 1_555
H35 C17 1_555 1_555
H36 C17 1_555 1_555
H37 C18 1_555 1_555
H38 C18 1_555 1_555
H39 C18 1_555 1_555
C8 C9 1_555 1_555

#END
