
#######################################################################
#
#                 Cambridge Crystallographic Data Centre
#                                CCDC 
#
#######################################################################
#
# If this CIF has been generated from an entry in the Cambridge 
# Structural Database, then it will include bibliographic, chemical, 
# crystal, experimental, refinement or atomic coordinate data resulting 
# from the CCDC's data processing and validation procedures.
#
#######################################################################

data_ZOPBAJ
_chemical_formula_moiety         'C22 H19 N5'
_chemical_name_systematic        
2-(4-(dimethylamino)phenyl)-3-(3,3-dimethylbut-1-yn-1-yl)buta-1,3-diene-1,1,4,4-tetracarbonitrile
_symmetry_cell_setting           monoclinic
_symmetry_space_group_name_H-M   'C 2/c'
_symmetry_Int_Tables_number      15
_space_group_name_Hall           '-C 2yn'
loop_
_symmetry_equiv_pos_site_id
_symmetry_equiv_pos_as_xyz
1 x,y,z
2 -x,y,1/2-z
3 1/2+x,1/2+y,z
4 1/2-x,1/2+y,1/2-z
5 -x,-y,-z
6 x,-y,1/2+z
7 1/2-x,1/2-y,-z
8 1/2+x,1/2-y,1/2+z
_cell_length_a                   23.064(16)
_cell_length_b                   10.483(7)
_cell_length_c                   18.053(13)
_cell_angle_alpha                90
_cell_angle_beta                 115.504(11)
_cell_angle_gamma                90
_cell_volume                     3939.52
_exptl_crystal_colour            'brown red'
_exptl_crystal_description       needle
_cell_formula_units_Z            8
_exptl_crystal_recrystallization_method 'trichloromethane/pentane mixture'
loop_
_atom_site_label
_atom_site_type_symbol
_atom_site_fract_x
_atom_site_fract_y
_atom_site_fract_z
N1 N 0.60704(7) -0.04596(17) 0.69919(10)
N2 N 0.42687(7) -0.21120(17) 0.67013(10)
N3 N 0.41521(8) 0.25713(19) 0.71182(11)
N4 N 0.22595(8) 0.11962(18) 0.54694(12)
N5 N 0.52342(6) 0.44572(15) 0.41235(9)
C1 C 0.44647(7) 0.05997(17) 0.57059(10)
C2 C 0.48262(8) -0.02968(18) 0.62748(10)
C3 C 0.55174(8) -0.03742(18) 0.66559(11)
C4 C 0.45146(8) -0.13013(19) 0.65127(11)
C5 C 0.37462(8) 0.04945(17) 0.54408(10)
C6 C 0.34821(8) 0.11529(18) 0.58675(11)
C7 C 0.38607(8) 0.19371(19) 0.65612(12)
C8 C 0.27997(8) 0.11503(19) 0.56386(11)
C9 C 0.46742(8) 0.16092(17) 0.53347(10)
C10 C 0.53303(8) 0.19199(19) 0.55698(11)
H1 H 0.5653 0.1467 0.6011
C11 C 0.55091(8) 0.28489(19) 0.51807(11)
H2 H 0.5953 0.3027 0.5361
C12 C 0.50534(8) 0.35550(17) 0.45171(11)
C13 C 0.43953(8) 0.32559(18) 0.42818(11)
H3 H 0.4072 0.3700 0.3836
C14 C 0.42204(8) 0.23386(19) 0.46871(11)
H4 H 0.3776 0.2187 0.4526
C15 C 0.59157(8) 0.47386(19) 0.43759(12)
H5 H 0.6120 0.4944 0.4963
H6 H 0.5956 0.5467 0.4061
H7 H 0.6126 0.3992 0.4273
C16 C 0.47651(9) 0.5067(2) 0.33773(11)
H8 H 0.4581 0.4427 0.2942
H9 H 0.4978 0.5734 0.3203
H10 H 0.4422 0.5448 0.3487
C17 C 0.33637(8) -0.02718(19) 0.47515(11)
C18 C 0.30207(8) -0.09095(18) 0.41714(11)
C19 C 0.25669(8) -0.16788(19) 0.34790(11)
C20 C 0.28657(10) -0.2045(2) 0.28925(13)
H11 H 0.2987 -0.1269 0.2690
H12 H 0.2552 -0.2528 0.2428
H13 H 0.3248 -0.2570 0.3186
C21 C 0.19543(9) -0.0892(2) 0.30221(13)
H14 H 0.1788 -0.0605 0.3411
H15 H 0.1630 -0.1419 0.2596
H16 H 0.2053 -0.0149 0.2767
C22 C 0.23986(10) -0.2890(2) 0.38263(13)
H17 H 0.2790 -0.3388 0.4128
H18 H 0.2091 -0.3404 0.3374
H19 H 0.2208 -0.2650 0.4198
loop_
_geom_bond_atom_site_label_1
_geom_bond_atom_site_label_2
_geom_bond_site_symmetry_1
_geom_bond_site_symmetry_2
N1 C3 1_555 1_555
N2 C4 1_555 1_555
N3 C7 1_555 1_555
N4 C8 1_555 1_555
N5 C12 1_555 1_555
C1 C2 1_555 1_555
C2 C3 1_555 1_555
C4 C2 1_555 1_555
C5 C1 1_555 1_555
C6 C5 1_555 1_555
C7 C6 1_555 1_555
C8 C6 1_555 1_555
C9 C1 1_555 1_555
C10 C9 1_555 1_555
H1 C10 1_555 1_555
C11 C10 1_555 1_555
H2 C11 1_555 1_555
C12 C11 1_555 1_555
C13 C12 1_555 1_555
H3 C13 1_555 1_555
C14 C9 1_555 1_555
H4 C14 1_555 1_555
C15 N5 1_555 1_555
H5 C15 1_555 1_555
H6 C15 1_555 1_555
H7 C15 1_555 1_555
C16 N5 1_555 1_555
H8 C16 1_555 1_555
H9 C16 1_555 1_555
H10 C16 1_555 1_555
C17 C5 1_555 1_555
C18 C17 1_555 1_555
C19 C18 1_555 1_555
C20 C19 1_555 1_555
H11 C20 1_555 1_555
H12 C20 1_555 1_555
H13 C20 1_555 1_555
C21 C19 1_555 1_555
H14 C21 1_555 1_555
H15 C21 1_555 1_555
H16 C21 1_555 1_555
C22 C19 1_555 1_555
H17 C22 1_555 1_555
H18 C22 1_555 1_555
H19 C22 1_555 1_555
C13 C14 1_555 1_555

#END
