
#######################################################################
#
#                 Cambridge Crystallographic Data Centre
#                                CCDC 
#
#######################################################################
#
# If this CIF has been generated from an entry in the Cambridge 
# Structural Database, then it will include bibliographic, chemical, 
# crystal, experimental, refinement or atomic coordinate data resulting 
# from the CCDC's data processing and validation procedures.
#
#######################################################################

data_ZOPGOC
_chemical_formula_moiety         '2(C10 H7 N1 O2),C6 H3 N3 O6'
_chemical_name_systematic        '1,3,5-Trinitrobenzene bis(1-nitronaphthalene)'
_symmetry_cell_setting           monoclinic
_symmetry_space_group_name_H-M   'C 2/c'
_symmetry_Int_Tables_number      15
_space_group_name_Hall           '-C 2yn'
loop_
_symmetry_equiv_pos_site_id
_symmetry_equiv_pos_as_xyz
1 x,y,z
2 -x,y,1/2-z
3 1/2+x,1/2+y,z
4 1/2-x,1/2+y,1/2-z
5 -x,-y,-z
6 x,-y,1/2+z
7 1/2-x,1/2-y,-z
8 1/2+x,1/2-y,1/2+z
_cell_length_a                   17.785(4)
_cell_length_b                   8.6390(17)
_cell_length_c                   16.498(3)
_cell_angle_alpha                90
_cell_angle_beta                 100.65(3)
_cell_angle_gamma                90
_cell_volume                     2491.17
_cell_formula_units_Z            4
loop_
_atom_site_label
_atom_site_type_symbol
_atom_site_fract_x
_atom_site_fract_y
_atom_site_fract_z
O1 O 0.65475(14) 0.1832(4) 0.14787(17)
O2 O 0.58931(14) -0.0266(3) 0.15405(15)
O3 O 0.5632(3) 0.6648(3) 0.2540(2)
N1 N 0.60205(14) 0.1083(4) 0.16792(16)
N2 N 0.5000 0.5994(6) 0.2500
C1 C 0.5000 0.1106(4) 0.2500
H1 H 0.5000 0.0029 0.2500
C2 C 0.55046(15) 0.1951(3) 0.21260(16)
C3 C 0.5524(2) 0.3532(3) 0.21340(17)
H2 H 0.5882 0.4072 0.1898
C4 C 0.5000 0.4300(5) 0.2500
O1A O 0.34525(14) 0.1832(4) 0.35213(17)
O2A O 0.41069(14) -0.0266(3) 0.34595(15)
O3A O 0.4368(3) 0.6648(3) 0.2460(2)
N1A N 0.39795(14) 0.1083(4) 0.33208(16)
C2A C 0.44954(15) 0.1951(3) 0.28740(16)
C3A C 0.4476(2) 0.3532(3) 0.28660(17)
H2A H 0.4118 0.4072 0.3102
N3 N 0.45156(14) 0.3187(3) -0.01242(14)
O4 O 0.50734(12) 0.2370(2) 0.01501(14)
O5 O 0.45003(15) 0.4005(3) -0.07307(14)
C5 C 0.36270(15) 0.1917(3) 0.06909(15)
C6 C 0.39306(17) 0.0395(3) 0.06412(17)
H3 H 0.4323 0.0237 0.0347
C7 C 0.36567(18) -0.0814(4) 0.10137(19)
H4 H 0.3858 -0.1798 0.0970
C8 C 0.3071(2) -0.0599(4) 0.1467(2)
H5 H 0.2897 -0.1437 0.1734
C9 C 0.27543(18) 0.0823(4) 0.15193(18)
H6 H 0.2360 0.0942 0.1814
C10 C 0.30211(15) 0.2132(4) 0.11279(17)
C11 C 0.26955(17) 0.3601(4) 0.1167(2)
H7 H 0.2297 0.3726 0.1456
C12 C 0.29513(18) 0.4857(4) 0.0791(2)
H8 H 0.2730 0.5824 0.0827
C13 C 0.35406(18) 0.4679(3) 0.0355(2)
H9 H 0.3708 0.5524 0.0088
C14 C 0.38755(15) 0.3266(3) 0.03167(16)
loop_
_geom_bond_atom_site_label_1
_geom_bond_atom_site_label_2
_geom_bond_site_symmetry_1
_geom_bond_site_symmetry_2
O1 N1 1_555 1_555
O2 N1 1_555 1_555
O3 N2 1_555 1_555
N1 C2 1_555 1_555
N2 C4 1_555 1_555
C1 H1 1_555 1_555
C2 C1 1_555 1_555
C3 C2 1_555 1_555
H2 C3 1_555 1_555
C4 C3 1_555 1_555
N3 O4 1_555 1_555
O5 N3 1_555 1_555
C5 C6 1_555 1_555
C6 H3 1_555 1_555
C7 C6 1_555 1_555
H4 C7 1_555 1_555
C8 C7 1_555 1_555
H5 C8 1_555 1_555
C9 C8 1_555 1_555
H6 C9 1_555 1_555
C10 C5 1_555 1_555
C11 C10 1_555 1_555
H7 C11 1_555 1_555
C12 C11 1_555 1_555
H8 C12 1_555 1_555
C13 C12 1_555 1_555
H9 C13 1_555 1_555
C14 N3 1_555 1_555
O1A N1A 1_555 1_555
O2A N1A 1_555 1_555
O3A N2 1_555 1_555
N1A C2A 1_555 1_555
C2A C1 1_555 1_555
C3A C4 1_555 1_555
H2A C3A 1_555 1_555
C5 C14 1_555 1_555
C9 C10 1_555 1_555
C13 C14 1_555 1_555
C2A C3A 1_555 1_555

#END
