
#######################################################################
#
#                 Cambridge Crystallographic Data Centre
#                                CCDC 
#
#######################################################################
#
# If this CIF has been generated from an entry in the Cambridge 
# Structural Database, then it will include bibliographic, chemical, 
# crystal, experimental, refinement or atomic coordinate data resulting 
# from the CCDC's data processing and validation procedures.
#
#######################################################################

data_ZOQCEP
_chemical_formula_moiety         'C22 H20 N2 O2'
_chemical_name_systematic        
(2,3-Dimethoxy-1,4-phenylene)bis(N-phenylmethanimine)
_symmetry_cell_setting           orthorhombic
_symmetry_space_group_name_H-M   'P b c n'
_symmetry_Int_Tables_number      60
_space_group_name_Hall           '-P 2n 2ab'
loop_
_symmetry_equiv_pos_site_id
_symmetry_equiv_pos_as_xyz
1 x,y,z
2 1/2-x,1/2-y,1/2+z
3 1/2+x,1/2-y,-z
4 -x,y,1/2-z
5 -x,-y,-z
6 1/2+x,1/2+y,1/2-z
7 1/2-x,1/2+y,z
8 x,-y,1/2+z
_cell_length_a                   15.715(3)
_cell_length_b                   12.1408(14)
_cell_length_c                   9.9342(12)
_cell_angle_alpha                90
_cell_angle_beta                 90
_cell_angle_gamma                90
_cell_volume                     1895.37
_exptl_crystal_colour            colorless
_exptl_crystal_description       Rod
_cell_formula_units_Z            4
loop_
_atom_site_label
_atom_site_type_symbol
_atom_site_fract_x
_atom_site_fract_y
_atom_site_fract_z
O1 O 0.06844(12) 0.22930(15) -0.16148(19)
N1 N 0.16667(16) -0.06442(16) -0.0121(2)
C1 C 0.06745(16) 0.0294(2) -0.1560(2)
C2 C 0.23397(18) -0.0692(2) 0.0860(3)
C3 C 0.03393(17) -0.0693(2) -0.2045(3)
H1 H 0.0570 -0.1359 -0.1760
C4 C 0.13766(16) 0.0268(2) -0.0548(3)
H2 H 0.1603 0.0925 -0.0227
C5 C 0.03373(15) 0.1291(2) -0.2031(2)
C6 C 0.2909(3) 0.0150(3) 0.1143(4)
H3 H 0.2866 0.0815 0.0683
C7 C 0.3542(2) 0.0013(4) 0.2109(4)
H4 H 0.3914 0.0588 0.2297
C8 C 0.2427(2) -0.1676(2) 0.1571(3)
H5 H 0.2056 -0.2255 0.1393
C9 C 0.3053(2) -0.1808(3) 0.2533(4)
H6 H 0.3095 -0.2464 0.3014
C10 C 0.3617(3) -0.0956(4) 0.2776(4)
H7 H 0.4052 -0.1049 0.3401
C11 C 0.0243(3) 0.2848(3) -0.0562(3)
H8 H 0.0278 0.2421 0.0250
H9 H -0.0343 0.2938 -0.0810
H10 H 0.0496 0.3557 -0.0416
O1C O -0.06844(12) 0.22930(15) -0.33852(19)
N1C N -0.16667(16) -0.06442(16) -0.4879(2)
C1C C -0.06745(16) 0.0294(2) -0.3440(2)
C2C C -0.23397(18) -0.0692(2) -0.5860(3)
C3C C -0.03393(17) -0.0693(2) -0.2955(3)
H1C H -0.0570 -0.1359 -0.3240
C4C C -0.13766(16) 0.0268(2) -0.4452(3)
H2C H -0.1603 0.0925 -0.4773
C5C C -0.03373(15) 0.1291(2) -0.2969(2)
C6C C -0.2909(3) 0.0150(3) -0.6143(4)
H3C H -0.2866 0.0815 -0.5683
C7C C -0.3542(2) 0.0013(4) -0.7109(4)
H4C H -0.3914 0.0588 -0.7297
C8C C -0.2427(2) -0.1676(2) -0.6571(3)
H5C H -0.2056 -0.2255 -0.6393
C9C C -0.3053(2) -0.1808(3) -0.7533(4)
H6C H -0.3095 -0.2464 -0.8014
C10C C -0.3617(3) -0.0956(4) -0.7776(4)
H7C H -0.4052 -0.1049 -0.8401
C11C C -0.0243(3) 0.2848(3) -0.4438(3)
H8C H -0.0278 0.2421 -0.5250
H9C H 0.0343 0.2938 -0.4190
H10C H -0.0496 0.3557 -0.4584
loop_
_geom_bond_atom_site_label_1
_geom_bond_atom_site_label_2
_geom_bond_site_symmetry_1
_geom_bond_site_symmetry_2
O1 C5 1_555 1_555
N1 C2 1_555 1_555
C1 C3 1_555 1_555
C2 C6 1_555 1_555
C3 H1 1_555 1_555
C4 N1 1_555 1_555
H2 C4 1_555 1_555
C5 C1 1_555 1_555
C6 H3 1_555 1_555
C7 C6 1_555 1_555
H4 C7 1_555 1_555
C8 C2 1_555 1_555
H5 C8 1_555 1_555
C9 C8 1_555 1_555
H6 C9 1_555 1_555
C10 C7 1_555 1_555
H7 C10 1_555 1_555
C11 O1 1_555 1_555
H8 C11 1_555 1_555
H9 C11 1_555 1_555
H10 C11 1_555 1_555
O1C C5C 1_555 1_555
N1C C2C 1_555 1_555
C1C C3C 1_555 1_555
C2C C6C 1_555 1_555
C3C C3 1_555 1_555
H1C C3C 1_555 1_555
C4C N1C 1_555 1_555
H2C C4C 1_555 1_555
C5C C5 1_555 1_555
C6C H3C 1_555 1_555
C7C C6C 1_555 1_555
H4C C7C 1_555 1_555
C8C C2C 1_555 1_555
H5C C8C 1_555 1_555
C9C C8C 1_555 1_555
H6C C9C 1_555 1_555
C10C C7C 1_555 1_555
H7C C10C 1_555 1_555
C11C O1C 1_555 1_555
H8C C11C 1_555 1_555
H9C C11C 1_555 1_555
H10C C11C 1_555 1_555
C1 C4 1_555 1_555
C9 C10 1_555 1_555
C1C C4C 1_555 1_555
C1C C5C 1_555 1_555
C9C C10C 1_555 1_555

#END
