
#######################################################################
#
#                 Cambridge Crystallographic Data Centre
#                                CCDC 
#
#######################################################################
#
# If this CIF has been generated from an entry in the Cambridge 
# Structural Database, then it will include bibliographic, chemical, 
# crystal, experimental, refinement or atomic coordinate data resulting 
# from the CCDC's data processing and validation procedures.
#
#######################################################################

data_ZOQMOJ
_chemical_formula_moiety         'C26 H32 O4'
_chemical_name_systematic        
5-(3-(benzyloxy)propyl)-5,11,11-trimethyl-10,12-dioxatetracyclo[6.5.2.0^1,6^.0^9,13^]pentadeca-2,14-dien-4-one
_symmetry_cell_setting           orthorhombic
_symmetry_space_group_name_H-M   'P 21 21 2'
_symmetry_Int_Tables_number      18
_space_group_name_Hall           'P 2 2ab'
loop_
_symmetry_equiv_pos_site_id
_symmetry_equiv_pos_as_xyz
1 x,y,z
2 1/2+x,1/2-y,-z
3 1/2-x,1/2+y,-z
4 -x,-y,z
_cell_length_a                   9.5997(2)
_cell_length_b                   30.6320(6)
_cell_length_c                   7.6648(2)
_cell_angle_alpha                90
_cell_angle_beta                 90
_cell_angle_gamma                90
_cell_volume                     2253.9
_exptl_crystal_colour            colorless
_exptl_crystal_description       plate
_cell_formula_units_Z            4
loop_
_atom_site_label
_atom_site_type_symbol
_atom_site_fract_x
_atom_site_fract_y
_atom_site_fract_z
C1 C 0.72011(17) 0.37740(5) 0.1927(2)
C2 C 0.68185(17) 0.36192(5) 0.0077(2)
C3 C 0.52396(17) 0.35164(5) -0.0003(2)
C4 C 0.44888(19) 0.39314(5) 0.0507(2)
C5 C 0.4836(2) 0.40927(5) 0.2040(2)
C6 C 0.58792(19) 0.38248(5) 0.3034(2)
C7 C 0.5249(2) 0.33624(6) 0.3243(2)
C8 C 0.50484(17) 0.31557(5) 0.14143(19)
C9 C 0.36931(16) 0.28869(5) 0.1182(2)
C10 C 0.37205(18) 0.26935(5) -0.0658(2)
C11 C 0.4237(2) 0.29742(6) -0.2075(2)
C12 C 0.48885(19) 0.33507(5) -0.1787(2)
O1 O 0.32860(15) 0.23270(4) -0.09829(18)
O2 O 0.78623(13) 0.41868(4) 0.16703(15)
O3 O 0.71763(13) 0.39753(4) -0.10329(15)
C13 C 0.8211(2) 0.42258(6) -0.0138(2)
C14 C 0.8063(4) 0.46957(7) -0.0659(4)
C15 C 0.9646(3) 0.40350(10) -0.0460(3)
C16 C 0.2354(2) 0.31666(7) 0.1279(3)
C17 C 0.35733(18) 0.25247(5) 0.2568(2)
C18 C 0.48082(19) 0.22170(6) 0.2773(2)
C19 C 0.44716(19) 0.18599(5) 0.4073(3)
O4 O 0.56049(12) 0.15628(3) 0.41755(17)
C20 C 0.52839(19) 0.12037(5) 0.5262(2)
C21 C 0.63603(17) 0.08490(5) 0.5088(2)
C22 C 0.6193(2) 0.04693(6) 0.6056(3)
C23 C 0.7114(2) 0.01235(6) 0.5877(3)
C24 C 0.8210(2) 0.01554(6) 0.4736(3)
C25 C 0.8409(2) 0.05349(7) 0.3795(3)
C26 C 0.74850(19) 0.08794(6) 0.3967(2)
H1 H 0.785(2) 0.3576(5) 0.251(2)
H2 H 0.7345(19) 0.3355(5) -0.026(2)
H3 H 0.382(2) 0.4064(6) -0.025(3)
H4 H 0.445(2) 0.4376(6) 0.250(3)
H5 H 0.615(2) 0.3962(6) 0.421(3)
H6 H 0.587(2) 0.3166(6) 0.398(3)
H7 H 0.434(2) 0.3389(6) 0.382(3)
H8 H 0.5824(18) 0.2951(5) 0.123(2)
H9 H 0.406(2) 0.2874(6) -0.327(3)
H10 H 0.517(2) 0.3540(6) -0.279(3)
H11 H 0.831(4) 0.4713(8) -0.189(5)
H12 H 0.875(3) 0.4865(9) -0.002(4)
H13 H 0.707(3) 0.4792(9) -0.046(4)
H14 H 0.980(3) 0.4056(9) -0.172(4)
H15 H 1.036(3) 0.4208(9) 0.021(4)
H16 H 0.963(3) 0.3689(10) -0.006(4)
H17 H 0.148(2) 0.2973(7) 0.121(3)
H18 H 0.231(3) 0.3377(8) 0.028(3)
H19 H 0.227(3) 0.3322(7) 0.238(3)
H20 H 0.335(2) 0.2667(6) 0.367(3)
H21 H 0.272(2) 0.2347(6) 0.229(3)
H22 H 0.568(2) 0.2373(6) 0.326(3)
H23 H 0.503(2) 0.2072(6) 0.165(3)
H24 H 0.423(2) 0.1982(6) 0.520(3)
H25 H 0.360(2) 0.1685(6) 0.369(3)
H26 H 0.520(2) 0.1299(6) 0.646(3)
H27 H 0.429(2) 0.1090(6) 0.498(3)
H28 H 0.542(2) 0.0457(6) 0.687(3)
H29 H 0.699(2) -0.0150(7) 0.653(3)
H30 H 0.884(2) -0.0096(6) 0.461(3)
H31 H 0.916(2) 0.0560(6) 0.299(3)
H32 H 0.760(2) 0.1150(6) 0.334(3)
loop_
_geom_bond_atom_site_label_1
_geom_bond_atom_site_label_2
_geom_bond_site_symmetry_1
_geom_bond_site_symmetry_2
C1 C2 1_555 1_555
C2 C3 1_555 1_555
C3 C4 1_555 1_555
C4 C5 1_555 1_555
C5 C6 1_555 1_555
C6 C1 1_555 1_555
C7 C6 1_555 1_555
C8 C3 1_555 1_555
C9 C8 1_555 1_555
C10 C9 1_555 1_555
C11 C10 1_555 1_555
C12 C3 1_555 1_555
O1 C10 1_555 1_555
O2 C1 1_555 1_555
O3 C2 1_555 1_555
C13 O2 1_555 1_555
C14 C13 1_555 1_555
C15 C13 1_555 1_555
C16 C9 1_555 1_555
C17 C9 1_555 1_555
C18 C17 1_555 1_555
C19 C18 1_555 1_555
O4 C19 1_555 1_555
C20 O4 1_555 1_555
C21 C20 1_555 1_555
C22 C21 1_555 1_555
C23 C22 1_555 1_555
C24 C23 1_555 1_555
C25 C24 1_555 1_555
C26 C21 1_555 1_555
H1 C1 1_555 1_555
H2 C2 1_555 1_555
H3 C4 1_555 1_555
H4 C5 1_555 1_555
H5 C6 1_555 1_555
H6 C7 1_555 1_555
H7 C7 1_555 1_555
H8 C8 1_555 1_555
H9 C11 1_555 1_555
H10 C12 1_555 1_555
H11 C14 1_555 1_555
H12 C14 1_555 1_555
H13 C14 1_555 1_555
H14 C15 1_555 1_555
H15 C15 1_555 1_555
H16 C15 1_555 1_555
H17 C16 1_555 1_555
H18 C16 1_555 1_555
H19 C16 1_555 1_555
H20 C17 1_555 1_555
H21 C17 1_555 1_555
H22 C18 1_555 1_555
H23 C18 1_555 1_555
H24 C19 1_555 1_555
H25 C19 1_555 1_555
H26 C20 1_555 1_555
H27 C20 1_555 1_555
H28 C22 1_555 1_555
H29 C23 1_555 1_555
H30 C24 1_555 1_555
H31 C25 1_555 1_555
H32 C26 1_555 1_555
C7 C8 1_555 1_555
C11 C12 1_555 1_555
O3 C13 1_555 1_555
C25 C26 1_555 1_555

#END
