
#######################################################################
#
#                 Cambridge Crystallographic Data Centre
#                                CCDC 
#
#######################################################################
#
# If this CIF has been generated from an entry in the Cambridge 
# Structural Database, then it will include bibliographic, chemical, 
# crystal, experimental, refinement or atomic coordinate data resulting 
# from the CCDC's data processing and validation procedures.
#
#######################################################################

data_ZORKUM
_chemical_formula_moiety         'C32 H60 O4'
_chemical_name_systematic        1,18-Dioxo-17,34-dioxacyclotetratriacontane
_symmetry_cell_setting           triclinic
_symmetry_space_group_name_H-M   'P -1'
_symmetry_Int_Tables_number      2
_space_group_name_Hall           '-P 1'
loop_
_symmetry_equiv_pos_site_id
_symmetry_equiv_pos_as_xyz
1 x,y,z
2 -x,-y,-z
_cell_length_a                   5.3295(5)
_cell_length_b                   8.647(1)
_cell_length_c                   17.937(1)
_cell_angle_alpha                90.81(1)
_cell_angle_beta                 92.43(1)
_cell_angle_gamma                107.92(1)
_cell_volume                     785.482
_exptl_crystal_colour            white
_chemical_melting_point          '112.5-115.5 deg.C'
_cell_formula_units_Z            1
loop_
_atom_site_label
_atom_site_type_symbol
_atom_site_fract_x
_atom_site_fract_y
_atom_site_fract_z
O1 O 0.2073(2) 0.2791(1) 0.4959(1)
O2 O -0.0018(2) 0.3793(1) 0.4068(1)
C1 C 0.0170(3) 0.2666(2) 0.4550(1)
C2 C -0.2303(3) 0.1235(2) 0.4502(1)
C3 C -0.3021(3) 0.0474(2) 0.3720(1)
C4 C -0.0837(3) -0.0054(2) 0.3378(1)
C5 C -0.1433(3) -0.0581(2) 0.2561(1)
C6 C 0.0765(3) -0.1019(2) 0.2189(1)
C7 C 0.0168(3) -0.1473(2) 0.1364(1)
C8 C 0.2354(3) -0.1889(2) 0.0975(1)
C9 C 0.1719(3) -0.2348(2) 0.0153(1)
C10 C 0.3881(3) -0.2766(2) -0.0247(1)
C11 C 0.3169(3) -0.3262(2) -0.1062(1)
C12 C 0.5302(3) -0.3667(2) -0.1482(1)
C13 C 0.4500(3) -0.4190(2) -0.2290(1)
C14 C 0.6612(3) -0.4531(2) -0.2741(1)
C15 C 0.5675(3) -0.5009(2) -0.3550(1)
C16 C 0.2259(3) 0.5252(2) 0.4045(1)
H1 H -0.3742(3) 0.1578(2) 0.4668(1)
H2 H -0.2080(3) 0.0422(2) 0.4835(1)
H3 H -0.3457(3) 0.1246(2) 0.3401(1)
H4 H -0.4566(3) -0.0456(2) 0.3739(1)
H5 H 0.0779(3) 0.0833(2) 0.3423(1)
H6 H -0.0058(3) -0.0940(2) 0.3654(1)
H7 H -0.2996(3) -0.1505(2) 0.2523(1)
H8 H -0.1804(3) 0.0283(2) 0.2293(1)
H9 H 0.1086(3) -0.1917(2) 0.2441(1)
H10 H 0.2350(3) -0.0112(2) 0.2244(1)
H11 H -0.1405(3) -0.2389(2) 0.1312(1)
H12 H -0.0189(3) -0.0582(2) 0.1116(1)
H13 H 0.2720(3) -0.2778(2) 0.1223(1)
H14 H 0.3925(3) -0.0971(2) 0.1022(1)
H15 H 0.0146(3) -0.3265(2) 0.0108(1)
H16 H 0.1347(3) -0.1459(2) -0.0093(1)
H17 H 0.4285(3) -0.3640(2) 0.0005(1)
H18 H 0.5443(3) -0.1841(2) -0.0215(1)
H19 H 0.1615(3) -0.4193(2) -0.1091(1)
H20 H 0.2736(3) -0.2393(2) -0.1309(1)
H21 H 0.5762(3) -0.4525(2) -0.1233(1)
H22 H 0.6846(3) -0.2730(2) -0.1466(1)
H23 H 0.3000(3) -0.5153(2) -0.2301(1)
H24 H 0.3950(3) -0.3353(2) -0.2528(1)
H25 H 0.7134(3) -0.5394(2) -0.2517(1)
H26 H 0.8132(3) -0.3580(2) -0.2729(1)
H27 H 0.4226(3) -0.5999(2) -0.3558(1)
H28 H 0.5022(3) -0.4181(2) -0.3756(1)
H29 H 0.1686(3) 0.6134(2) 0.3865(1)
H30 H 0.3022(3) 0.5543(2) 0.4542(1)
C15A C 0.4325(3) 0.5009(2) 0.3550(1)
C14A C 0.3388(3) 0.4531(2) 0.2741(1)
C13A C 0.5500(3) 0.4190(2) 0.2290(1)
C12A C 0.4698(3) 0.3667(2) 0.1482(1)
C11A C 0.6831(3) 0.3262(2) 0.1062(1)
C10A C 0.6119(3) 0.2766(2) 0.0247(1)
C9A C 0.8281(3) 0.2348(2) -0.0153(1)
C8A C 0.7646(3) 0.1889(2) -0.0975(1)
C7A C 0.9832(3) 0.1473(2) -0.1364(1)
C6A C 0.9235(3) 0.1019(2) -0.2189(1)
C5A C 1.1433(3) 0.0581(2) -0.2561(1)
C4A C 1.0837(3) 0.0054(2) -0.3378(1)
C3A C 1.3021(3) -0.0474(2) -0.3720(1)
C2A C 1.2303(3) -0.1235(2) -0.4502(1)
C1A C 0.9830(3) -0.2666(2) -0.4550(1)
O1A O 0.7927(2) -0.2791(1) -0.4959(1)
O2A O 1.0018(2) -0.3793(1) -0.4068(1)
C16A C 0.7741(3) -0.5252(2) -0.4045(1)
H29A H 0.8314(3) -0.6134(2) -0.3865(1)
H30A H 0.6978(3) -0.5543(2) -0.4542(1)
H1A H 1.3742(3) -0.1578(2) -0.4668(1)
H2A H 1.2080(3) -0.0422(2) -0.4835(1)
H3A H 1.3457(3) -0.1246(2) -0.3401(1)
H4A H 1.4566(3) 0.0456(2) -0.3739(1)
H5A H 0.9221(3) -0.0833(2) -0.3423(1)
H6A H 1.0058(3) 0.0940(2) -0.3654(1)
H7A H 1.2996(3) 0.1505(2) -0.2523(1)
H8A H 1.1804(3) -0.0283(2) -0.2293(1)
H9A H 0.8914(3) 0.1917(2) -0.2441(1)
H10A H 0.7650(3) 0.0112(2) -0.2244(1)
H11A H 1.1405(3) 0.2389(2) -0.1312(1)
H12A H 1.0189(3) 0.0582(2) -0.1116(1)
H13A H 0.7280(3) 0.2778(2) -0.1223(1)
H14A H 0.6075(3) 0.0971(2) -0.1022(1)
H15A H 0.9854(3) 0.3265(2) -0.0108(1)
H16A H 0.8653(3) 0.1459(2) 0.0093(1)
H17A H 0.5715(3) 0.3640(2) -0.0005(1)
H18A H 0.4557(3) 0.1841(2) 0.0215(1)
H19A H 0.8385(3) 0.4193(2) 0.1091(1)
H20A H 0.7264(3) 0.2393(2) 0.1309(1)
H21A H 0.4238(3) 0.4525(2) 0.1233(1)
H22A H 0.3154(3) 0.2730(2) 0.1466(1)
H23A H 0.7000(3) 0.5153(2) 0.2301(1)
H24A H 0.6050(3) 0.3353(2) 0.2528(1)
H25A H 0.2866(3) 0.5394(2) 0.2517(1)
H26A H 0.1868(3) 0.3580(2) 0.2729(1)
H27A H 0.5774(3) 0.5999(2) 0.3558(1)
H28A H 0.4978(3) 0.4181(2) 0.3756(1)
loop_
_geom_bond_atom_site_label_1
_geom_bond_atom_site_label_2
_geom_bond_site_symmetry_1
_geom_bond_site_symmetry_2
O1 C1 1_555 1_555
O2 C1 1_555 1_555
C1 C2 1_555 1_555
C2 C3 1_555 1_555
C3 C4 1_555 1_555
C4 C5 1_555 1_555
C5 C6 1_555 1_555
C6 C7 1_555 1_555
C7 C8 1_555 1_555
C8 C9 1_555 1_555
C9 C10 1_555 1_555
C10 C11 1_555 1_555
C11 C12 1_555 1_555
C12 C13 1_555 1_555
C13 C14 1_555 1_555
C14 C15 1_555 1_555
C15 H27 1_555 1_555
C16 O2 1_555 1_555
H1 C2 1_555 1_555
H2 C2 1_555 1_555
H3 C3 1_555 1_555
H4 C3 1_555 1_555
H5 C4 1_555 1_555
H6 C4 1_555 1_555
H7 C5 1_555 1_555
H8 C5 1_555 1_555
H9 C6 1_555 1_555
H10 C6 1_555 1_555
H11 C7 1_555 1_555
H12 C7 1_555 1_555
H13 C8 1_555 1_555
H14 C8 1_555 1_555
H15 C9 1_555 1_555
H16 C9 1_555 1_555
H17 C10 1_555 1_555
H18 C10 1_555 1_555
H19 C11 1_555 1_555
H20 C11 1_555 1_555
H21 C12 1_555 1_555
H22 C12 1_555 1_555
H23 C13 1_555 1_555
H24 C13 1_555 1_555
H25 C14 1_555 1_555
H26 C14 1_555 1_555
H28 C15 1_555 1_555
H29 C16 1_555 1_555
H30 C16 1_555 1_555
C15A C16 1_555 1_555
C14A C15A 1_555 1_555
C13A C14A 1_555 1_555
C12A C13A 1_555 1_555
C11A C12A 1_555 1_555
C10A C11A 1_555 1_555
C9A C10A 1_555 1_555
C8A C9A 1_555 1_555
C7A C8A 1_555 1_555
C6A C7A 1_555 1_555
C5A C6A 1_555 1_555
C4A C5A 1_555 1_555
C3A C4A 1_555 1_555
C2A C3A 1_555 1_555
C1A C2A 1_555 1_555
O1A C1A 1_555 1_555
O2A C1A 1_555 1_555
C16A C15 1_555 1_555
H29A C16A 1_555 1_555
H30A C16A 1_555 1_555
H1A C2A 1_555 1_555
H2A C2A 1_555 1_555
H3A C3A 1_555 1_555
H4A C3A 1_555 1_555
H5A C4A 1_555 1_555
H6A C4A 1_555 1_555
H7A C5A 1_555 1_555
H8A C5A 1_555 1_555
H9A C6A 1_555 1_555
H10A C6A 1_555 1_555
H11A C7A 1_555 1_555
H12A C7A 1_555 1_555
H13A C8A 1_555 1_555
H14A C8A 1_555 1_555
H15A C9A 1_555 1_555
H16A C9A 1_555 1_555
H17A C10A 1_555 1_555
H18A C10A 1_555 1_555
H19A C11A 1_555 1_555
H20A C11A 1_555 1_555
H21A C12A 1_555 1_555
H22A C12A 1_555 1_555
H23A C13A 1_555 1_555
H24A C13A 1_555 1_555
H25A C14A 1_555 1_555
H26A C14A 1_555 1_555
H27A C15A 1_555 1_555
H28A C15A 1_555 1_555
O2A C16A 1_555 1_555

#END
