
#######################################################################
#
#                 Cambridge Crystallographic Data Centre
#                                CCDC 
#
#######################################################################
#
# If this CIF has been generated from an entry in the Cambridge 
# Structural Database, then it will include bibliographic, chemical, 
# crystal, experimental, refinement or atomic coordinate data resulting 
# from the CCDC's data processing and validation procedures.
#
#######################################################################

data_ZOSFAO
_chemical_formula_moiety         'C26 H20 O4 Si1'
_chemical_name_systematic        Diphenyl-bis(tropolonato-O,O')-silicon
_symmetry_cell_setting           monoclinic
_symmetry_space_group_name_H-M   'P 21/n'
_symmetry_Int_Tables_number      14
_space_group_name_Hall           '-P 2yn'
loop_
_symmetry_equiv_pos_site_id
_symmetry_equiv_pos_as_xyz
1 x,y,z
2 1/2-x,1/2+y,1/2-z
3 -x,-y,-z
4 1/2+x,1/2-y,1/2+z
_cell_length_a                   9.671(4)
_cell_length_b                   16.139(5)
_cell_length_c                   13.557(4)
_cell_angle_alpha                90
_cell_angle_beta                 102.27(3)
_cell_angle_gamma                90
_cell_volume                     2067.64
_exptl_crystal_colour            yellow
_chemical_melting_point          '244-245 deg.C (dec)'
_cell_formula_units_Z            4
loop_
_atom_site_label
_atom_site_type_symbol
_atom_site_fract_x
_atom_site_fract_y
_atom_site_fract_z
Si1 Si 0.6311(1) 0.2123(1) 0.9226(1)
O1 O 0.5146(3) 0.2075(2) 0.8007(2)
O2 O 0.5747(3) 0.0986(2) 0.9297(2)
O3 O 0.7626(3) 0.1931(2) 1.0363(2)
O4 O 0.7681(3) 0.1655(2) 0.8598(2)
C1 C 0.4513(4) 0.1366(2) 0.7742(3)
C2 C 0.4870(4) 0.0732(2) 0.8502(3)
C3 C 0.4337(4) -0.0078(2) 0.8454(3)
C4 C 0.3397(5) -0.0459(3) 0.7680(3)
C5 C 0.2721(5) -0.0160(3) 0.6746(4)
C6 C 0.2806(5) 0.0623(3) 0.6376(3)
C7 C 0.3593(5) 0.1305(3) 0.6807(3)
C8 C 0.8808(4) 0.1576(2) 1.0258(3)
C9 C 0.8809(4) 0.1397(2) 0.9217(3)
C10 C 0.9880(5) 0.1007(3) 0.8852(4)
C11 C 1.1176(5) 0.0717(3) 0.9374(5)
C12 C 1.1763(5) 0.0751(3) 1.0391(5)
C13 C 1.1197(5) 0.1070(3) 1.1144(4)
C14 C 0.9874(4) 0.1436(3) 1.1098(3)
C15 C 0.4897(4) 0.2418(2) 0.9972(3)
C16 C 0.3499(5) 0.2618(3) 0.9491(4)
C17 C 0.2487(5) 0.2844(3) 1.0044(5)
C18 C 0.2810(6) 0.2854(3) 1.1073(5)
C19 C 0.4165(7) 0.2661(3) 1.1564(5)
C20 C 0.5175(5) 0.2460(3) 1.1022(4)
C21 C 0.6922(4) 0.3229(2) 0.8988(3)
C22 C 0.8334(4) 0.3447(3) 0.9036(4)
C23 C 0.8755(5) 0.4247(3) 0.8922(4)
C24 C 0.7782(6) 0.4879(3) 0.8744(4)
C25 C 0.6375(5) 0.4699(3) 0.8676(4)
C26 C 0.5974(4) 0.3889(3) 0.8801(3)
H1 H 0.482(4) -0.041(3) 0.912(3)
H2 H 0.323(5) -0.105(3) 0.788(3)
H3 H 0.205(5) -0.053(3) 0.627(3)
H4 H 0.230(5) 0.072(3) 0.563(3)
H5 H 0.359(4) 0.182(3) 0.640(3)
H6 H 0.967(4) 0.093(3) 0.812(3)
H7 H 1.164(5) 0.045(3) 0.883(4)
H8 H 1.269(5) 0.048(3) 1.062(4)
H9 H 1.169(5) 0.100(3) 1.185(3)
H10 H 0.962(5) 0.161(3) 1.177(3)
H11 H 0.334(5) 0.256(3) 0.874(3)
H12 H 0.148(6) 0.300(3) 0.951(4)
H13 H 0.222(5) 0.304(3) 1.155(4)
H14 H 0.416(5) 0.259(3) 1.230(4)
H15 H 0.619(5) 0.241(3) 1.155(4)
H16 H 0.904(4) 0.301(3) 0.914(3)
H17 H 0.967(5) 0.437(3) 0.886(3)
H18 H 0.807(5) 0.546(3) 0.864(3)
H19 H 0.569(5) 0.515(3) 0.866(3)
H20 H 0.500(5) 0.376(3) 0.885(3)
loop_
_geom_bond_atom_site_label_1
_geom_bond_atom_site_label_2
_geom_bond_site_symmetry_1
_geom_bond_site_symmetry_2
Si1 O1 1_555 1_555
O1 C1 1_555 1_555
O2 Si1 1_555 1_555
O3 Si1 1_555 1_555
O4 Si1 1_555 1_555
C1 C2 1_555 1_555
C2 O2 1_555 1_555
C3 C2 1_555 1_555
C4 C3 1_555 1_555
C5 C4 1_555 1_555
C6 C5 1_555 1_555
C7 C1 1_555 1_555
C8 O3 1_555 1_555
C9 O4 1_555 1_555
C10 C9 1_555 1_555
C11 C10 1_555 1_555
C12 C11 1_555 1_555
C13 C12 1_555 1_555
C14 C8 1_555 1_555
C15 Si1 1_555 1_555
C16 C15 1_555 1_555
C17 C16 1_555 1_555
C18 C17 1_555 1_555
C19 C18 1_555 1_555
C20 C15 1_555 1_555
C21 Si1 1_555 1_555
C22 C21 1_555 1_555
C23 C22 1_555 1_555
C24 C23 1_555 1_555
C25 C24 1_555 1_555
C26 C21 1_555 1_555
H1 C3 1_555 1_555
H2 C4 1_555 1_555
H3 C5 1_555 1_555
H4 C6 1_555 1_555
H5 C7 1_555 1_555
H6 C10 1_555 1_555
H7 C11 1_555 1_555
H8 C12 1_555 1_555
H9 C13 1_555 1_555
H10 C14 1_555 1_555
H11 C16 1_555 1_555
H12 C17 1_555 1_555
H13 C18 1_555 1_555
H14 C19 1_555 1_555
H15 C20 1_555 1_555
H16 C22 1_555 1_555
H17 C23 1_555 1_555
H18 C24 1_555 1_555
H19 C25 1_555 1_555
H20 C26 1_555 1_555
C6 C7 1_555 1_555
C8 C9 1_555 1_555
C13 C14 1_555 1_555
C19 C20 1_555 1_555
C25 C26 1_555 1_555

#END
