
#######################################################################
#
#                 Cambridge Crystallographic Data Centre
#                                CCDC 
#
#######################################################################
#
# If this CIF has been generated from an entry in the Cambridge 
# Structural Database, then it will include bibliographic, chemical, 
# crystal, experimental, refinement or atomic coordinate data resulting 
# from the CCDC's data processing and validation procedures.
#
#######################################################################

data_ZOWKIF
_chemical_formula_moiety         'C16 H36 Ca1 Cl2 N4 O4'
_chemical_name_systematic        
Dichloro-tetrakis(dimethylacetamido-O)-calcium
_symmetry_cell_setting           monoclinic
_symmetry_space_group_name_H-M   'P 21/n'
_symmetry_Int_Tables_number      14
_space_group_name_Hall           '-P 2yn'
loop_
_symmetry_equiv_pos_site_id
_symmetry_equiv_pos_as_xyz
1 x,y,z
2 1/2-x,1/2+y,1/2-z
3 -x,-y,-z
4 1/2+x,1/2-y,1/2+z
_cell_length_a                   9.702(2)
_cell_length_b                   12.105(4)
_cell_length_c                   10.296(3)
_cell_angle_alpha                90
_cell_angle_beta                 90.63(2)
_cell_angle_gamma                90
_cell_volume                     1209.12
_exptl_crystal_colour            colorless
_cell_formula_units_Z            2
loop_
_atom_site_label
_atom_site_type_symbol
_atom_site_fract_x
_atom_site_fract_y
_atom_site_fract_z
Ca1 Ca 0.5000 0.5000 0.5000
Cl1 Cl 0.5091(2) 0.7299(1) 0.5150(2)
O1 O 0.5651(5) 0.4910(4) 0.7149(3)
O2 O 0.2724(4) 0.5089(4) 0.5639(4)
N1 N 0.6686(6) 0.5213(6) 0.9047(5)
N2 N 0.0982(7) 0.5435(9) 0.6860(6)
C1 C 0.6314(7) 0.4608(7) 0.8109(7)
C2 C 0.6759(8) 0.3359(6) 0.8199(8)
C3 C 0.6247(9) 0.6412(5) 0.8932(7)
C4 C 0.7404(7) 0.4886(7) 1.0228(6)
C5 C 0.1695(8) 0.5033(12) 0.6285(6)
C6 C 0.0894(8) 0.3694(5) 0.6268(7)
C7 C 0.1778(8) 0.6747(5) 0.6898(7)
C8 C -0.0306(7) 0.5432(6) 0.7559(6)
H1 H 0.7264 0.3262 0.9009
H2 H 0.7338 0.3190 0.7507
H3 H 0.5973 0.2912 0.8208
H4 H 0.6961 0.6832 0.8545
H5 H 0.6031 0.6695 0.9750
H6 H 0.5442 0.6455 0.8371
H7 H 0.6755 0.4764 1.0894
H8 H 0.8011 0.5473 1.0490
H9 H 0.7925 0.4240 1.0084
H10 H 0.2326 0.6801 0.7657
H11 H 0.1079 0.7300 0.6907
H12 H 0.2317 0.6819 0.6151
H13 H -0.1003 0.5733 0.6999
H14 H -0.0214 0.5884 0.8306
H15 H -0.0520 0.4706 0.7782
Cl1B Cl 0.4909(2) 0.2701(1) 0.4850(2)
O1B O 0.4349(5) 0.5090(4) 0.2851(3)
C1B C 0.3686(7) 0.5392(7) 0.1891(7)
N1B N 0.3314(6) 0.4787(6) 0.0953(5)
C3B C 0.3753(9) 0.3588(5) 0.1068(7)
H4B H 0.3039 0.3168 0.1455
H5B H 0.3969 0.3305 0.0250
H6B H 0.4558 0.3545 0.1629
C4B C 0.2596(7) 0.5114(7) -0.0228(6)
H7B H 0.3245 0.5236 -0.0894
H8B H 0.1989 0.4527 -0.0490
H9B H 0.2075 0.5760 -0.0084
C2B C 0.3241(8) 0.6641(6) 0.1801(8)
H1B H 0.2736 0.6738 0.0991
H2B H 0.2662 0.6810 0.2493
H3B H 0.4027 0.7088 0.1792
O2B O 0.7276(4) 0.4911(4) 0.4361(4)
C5B C 0.8305(8) 0.4967(12) 0.3715(6)
N2B N 0.9018(7) 0.4565(9) 0.3140(6)
C7B C 0.8222(8) 0.3253(5) 0.3102(7)
H10B H 0.7674 0.3199 0.2343
H11B H 0.8921 0.2700 0.3093
H12B H 0.7683 0.3181 0.3849
C8B C 1.0306(7) 0.4568(6) 0.2441(6)
H13B H 1.1003 0.4267 0.3001
H14B H 1.0214 0.4116 0.1694
H15B H 1.0520 0.5294 0.2218
C6B C 0.9106(8) 0.6306(5) 0.3732(7)
loop_
_geom_bond_atom_site_label_1
_geom_bond_atom_site_label_2
_geom_bond_site_symmetry_1
_geom_bond_site_symmetry_2
Ca1 Cl1 1_555 1_555
O1 Ca1 1_555 1_555
O2 Ca1 1_555 1_555
N1 C1 1_555 1_555
N2 C5 1_555 1_555
C1 O1 1_555 1_555
C2 C1 1_555 1_555
C3 N1 1_555 1_555
C4 N1 1_555 1_555
C5 O2 1_555 1_555
C6 C5 1_555 1_555
C7 N2 1_555 1_555
C8 N2 1_555 1_555
H1 C2 1_555 1_555
H2 C2 1_555 1_555
H3 C2 1_555 1_555
H4 C3 1_555 1_555
H5 C3 1_555 1_555
H6 C3 1_555 1_555
H7 C4 1_555 1_555
H8 C4 1_555 1_555
H9 C4 1_555 1_555
H10 C7 1_555 1_555
H11 C7 1_555 1_555
H12 C7 1_555 1_555
H13 C8 1_555 1_555
H14 C8 1_555 1_555
H15 C8 1_555 1_555
Cl1B Ca1 1_555 1_555
O1B Ca1 1_555 1_555
C1B O1B 1_555 1_555
N1B C1B 1_555 1_555
C3B N1B 1_555 1_555
H4B C3B 1_555 1_555
H5B C3B 1_555 1_555
H6B C3B 1_555 1_555
C4B N1B 1_555 1_555
H7B C4B 1_555 1_555
H8B C4B 1_555 1_555
H9B C4B 1_555 1_555
C2B C1B 1_555 1_555
H1B C2B 1_555 1_555
H2B C2B 1_555 1_555
H3B C2B 1_555 1_555
O2B Ca1 1_555 1_555
C5B O2B 1_555 1_555
N2B C5B 1_555 1_555
C7B N2B 1_555 1_555
H10B C7B 1_555 1_555
H11B C7B 1_555 1_555
H12B C7B 1_555 1_555
C8B N2B 1_555 1_555
H13B C8B 1_555 1_555
H14B C8B 1_555 1_555
H15B C8B 1_555 1_555
C6B C5B 1_555 1_555

#END
