
#######################################################################
#
#                 Cambridge Crystallographic Data Centre
#                                CCDC 
#
#######################################################################
#
# If this CIF has been generated from an entry in the Cambridge 
# Structural Database, then it will include bibliographic, chemical, 
# crystal, experimental, refinement or atomic coordinate data resulting 
# from the CCDC's data processing and validation procedures.
#
#######################################################################

data_ZOWYIV
_chemical_formula_moiety         'C33 H82 O5 Si10'
_chemical_name_systematic        
'bis(1-hydroxy-2,2,5,5-tetrakis(trimethylsilyl)silolan-1-yl) carbonate'
_symmetry_cell_setting           monoclinic
_symmetry_space_group_name_H-M   'C 2/c'
_symmetry_Int_Tables_number      15
_space_group_name_Hall           '-C 2yn'
loop_
_symmetry_equiv_pos_site_id
_symmetry_equiv_pos_as_xyz
1 x,y,z
2 -x,y,1/2-z
3 1/2+x,1/2+y,z
4 1/2-x,1/2+y,1/2-z
5 -x,-y,-z
6 x,-y,1/2+z
7 1/2-x,1/2-y,-z
8 1/2+x,1/2-y,1/2+z
_cell_length_a                   26.507(3)
_cell_length_b                   15.3489(19)
_cell_length_c                   12.3982(16)
_cell_angle_alpha                90
_cell_angle_beta                 93.785(3)
_cell_angle_gamma                90
_cell_volume                     5033.25
_exptl_crystal_colour            colorless
_exptl_crystal_description       block
_cell_formula_units_Z            4
loop_
_atom_site_label
_atom_site_type_symbol
_atom_site_fract_x
_atom_site_fract_y
_atom_site_fract_z
Si1 Si 0.09875(2) 0.22441(4) 0.31668(5)
Si2 Si 0.12157(3) 0.42678(5) 0.27128(6)
Si3 Si 0.18147(3) 0.28051(7) 0.16052(7)
Si4 Si 0.14222(4) 0.09773(6) 0.49727(8)
Si5 Si 0.05775(3) 0.22437(6) 0.56042(6)
O1 O 0.10614(10) 0.13410(17) 0.2445(2)
O2 O 0.0000 0.1357(2) 0.2500
O3 O 0.03986(6) 0.26075(10) 0.27680(12)
C1 C 0.14581(9) 0.30954(16) 0.28544(18)
C2 C 0.18216(10) 0.30172(19) 0.3905(2)
H1 H 0.2060 0.2546 0.3819
H2 H 0.2012 0.3553 0.4012
C3 C 0.15200(10) 0.28408(18) 0.4900(2)
H3 H 0.1348 0.3370 0.5098
H4 H 0.1750 0.2671 0.5504
C4 C 0.11165(9) 0.20911(16) 0.46582(19)
C5 C 0.06821(14) 0.4569(2) 0.3544(3)
H5 H 0.0615 0.5182 0.3471
H6 H 0.0770 0.4435 0.4289
H7 H 0.0386 0.4247 0.3301
C6 C 0.09705(17) 0.4540(3) 0.1315(3)
H8 H 0.0740 0.4095 0.1051
H9 H 0.1247 0.4578 0.0855
H10 H 0.0797 0.5090 0.1317
C7 C 0.17338(17) 0.5063(3) 0.3142(4)
H11 H 0.2029 0.4938 0.2760
H12 H 0.1815 0.5009 0.3906
H13 H 0.1622 0.5645 0.2980
C8 C 0.13809(15) 0.2572(3) 0.0390(3)
H14 H 0.1575 0.2383 -0.0194
H15 H 0.1198 0.3091 0.0180
H16 H 0.1147 0.2123 0.0559
C9 C 0.22537(16) 0.3698(3) 0.1252(3)
H17 H 0.2502 0.3787 0.1840
H18 H 0.2065 0.4225 0.1119
H19 H 0.2419 0.3540 0.0614
C10 C 0.22317(17) 0.1830(3) 0.1827(4)
H20 H 0.2028 0.1329 0.1957
H21 H 0.2465 0.1929 0.2441
H22 H 0.2416 0.1733 0.1198
C11 C 0.20472(14) 0.0817(3) 0.4392(4)
H23 H 0.2274 0.1274 0.4640
H24 H 0.2004 0.0832 0.3617
H25 H 0.2185 0.0264 0.4621
C12 C 0.1572(2) 0.0851(3) 0.6467(4)
H26 H 0.1753 0.0316 0.6603
H27 H 0.1263 0.0840 0.6830
H28 H 0.1776 0.1332 0.6730
C13 C 0.10146(17) 0.0042(2) 0.4481(4)
H29 H 0.1176 -0.0264 0.3923
H30 H 0.0693 0.0258 0.4197
H31 H 0.0966 -0.0348 0.5070
C14 C 0.08376(19) 0.2634(3) 0.6960(3)
H32 H 0.1110 0.3034 0.6868
H33 H 0.0961 0.2145 0.7384
H34 H 0.0576 0.2922 0.7323
C15 C 0.0197(2) 0.1246(3) 0.5774(5)
H35 H -0.0079 0.1376 0.6211
H36 H 0.0406 0.0804 0.6122
H37 H 0.0068 0.1041 0.5079
C16 C 0.01046(15) 0.3114(3) 0.5201(3)
H38 H -0.0059 0.2974 0.4509
H39 H 0.0274 0.3664 0.5158
H40 H -0.0143 0.3149 0.5730
C17 C 0.0000 0.2137(2) 0.2500
H41 H 0.0897(11) 0.115(2) 0.236(3)
Si1A Si -0.09875(2) 0.22441(4) 0.18332(5)
Si2A Si -0.12157(3) 0.42678(5) 0.22872(6)
Si3A Si -0.18147(3) 0.28051(7) 0.33948(7)
Si4A Si -0.14222(4) 0.09773(6) 0.00273(8)
Si5A Si -0.05775(3) 0.22437(6) -0.06042(6)
O1A O -0.10614(10) 0.13410(17) 0.2555(2)
O3A O -0.03986(6) 0.26075(10) 0.22320(12)
C1A C -0.14581(9) 0.30954(16) 0.21456(18)
C2A C -0.18216(10) 0.30172(19) 0.1095(2)
H1A H -0.2060 0.2546 0.1181
H2A H -0.2012 0.3553 0.0988
C3A C -0.15200(10) 0.28408(18) 0.0100(2)
H3A H -0.1348 0.3370 -0.0098
H4A H -0.1750 0.2671 -0.0504
C4A C -0.11165(9) 0.20911(16) 0.03418(19)
C5A C -0.06821(14) 0.4569(2) 0.1456(3)
H5A H -0.0615 0.5182 0.1529
H6A H -0.0770 0.4435 0.0711
H7A H -0.0386 0.4247 0.1699
C6A C -0.09705(17) 0.4540(3) 0.3685(3)
H8A H -0.0740 0.4095 0.3949
H9A H -0.1247 0.4578 0.4145
H10A H -0.0797 0.5090 0.3683
C7A C -0.17338(17) 0.5063(3) 0.1858(4)
H11A H -0.2029 0.4938 0.2240
H12A H -0.1815 0.5009 0.1094
H13A H -0.1622 0.5645 0.2020
C8A C -0.13809(15) 0.2572(3) 0.4610(3)
H14A H -0.1575 0.2383 0.5194
H15A H -0.1198 0.3091 0.4820
H16A H -0.1147 0.2123 0.4441
C9A C -0.22537(16) 0.3698(3) 0.3748(3)
H17A H -0.2502 0.3787 0.3160
H18A H -0.2065 0.4225 0.3881
H19A H -0.2419 0.3540 0.4386
C10A C -0.22317(17) 0.1830(3) 0.3173(4)
H20A H -0.2028 0.1329 0.3043
H21A H -0.2465 0.1929 0.2559
H22A H -0.2416 0.1733 0.3802
C11A C -0.20472(14) 0.0817(3) 0.0608(4)
H23A H -0.2274 0.1274 0.0360
H24A H -0.2004 0.0832 0.1383
H25A H -0.2185 0.0264 0.0379
C12A C -0.1572(2) 0.0851(3) -0.1467(4)
H26A H -0.1753 0.0316 -0.1603
H27A H -0.1263 0.0840 -0.1830
H28A H -0.1776 0.1332 -0.1730
C13A C -0.10146(17) 0.0042(2) 0.0519(4)
H29A H -0.1176 -0.0264 0.1077
H30A H -0.0693 0.0258 0.0803
H31A H -0.0966 -0.0348 -0.0070
C14A C -0.08376(19) 0.2634(3) -0.1960(3)
H32A H -0.1110 0.3034 -0.1868
H33A H -0.0961 0.2145 -0.2384
H34A H -0.0576 0.2922 -0.2323
C15A C -0.0197(2) 0.1246(3) -0.0774(5)
H35A H 0.0079 0.1376 -0.1211
H36A H -0.0406 0.0804 -0.1122
H37A H -0.0068 0.1041 -0.0079
C16A C -0.01046(15) 0.3114(3) -0.0201(3)
H38A H 0.0059 0.2974 0.0491
H39A H -0.0274 0.3664 -0.0158
H40A H 0.0143 0.3149 -0.0730
H41A H -0.0897(11) 0.115(2) 0.264(3)
loop_
_geom_bond_atom_site_label_1
_geom_bond_atom_site_label_2
_geom_bond_site_symmetry_1
_geom_bond_site_symmetry_2
Si1 O1 1_555 1_555
Si2 C1 1_555 1_555
Si3 C1 1_555 1_555
Si4 C4 1_555 1_555
Si5 C4 1_555 1_555
O1 H41 1_555 1_555
O2 C17 1_555 1_555
O3 Si1 1_555 1_555
C1 Si1 1_555 1_555
C2 C1 1_555 1_555
H1 C2 1_555 1_555
H2 C2 1_555 1_555
C3 C2 1_555 1_555
H3 C3 1_555 1_555
H4 C3 1_555 1_555
C4 Si1 1_555 1_555
C5 Si2 1_555 1_555
H5 C5 1_555 1_555
H6 C5 1_555 1_555
H7 C5 1_555 1_555
C6 Si2 1_555 1_555
H8 C6 1_555 1_555
H9 C6 1_555 1_555
H10 C6 1_555 1_555
C7 Si2 1_555 1_555
H11 C7 1_555 1_555
H12 C7 1_555 1_555
H13 C7 1_555 1_555
C8 Si3 1_555 1_555
H14 C8 1_555 1_555
H15 C8 1_555 1_555
H16 C8 1_555 1_555
C9 Si3 1_555 1_555
H17 C9 1_555 1_555
H18 C9 1_555 1_555
H19 C9 1_555 1_555
C10 Si3 1_555 1_555
H20 C10 1_555 1_555
H21 C10 1_555 1_555
H22 C10 1_555 1_555
C11 Si4 1_555 1_555
H23 C11 1_555 1_555
H24 C11 1_555 1_555
H25 C11 1_555 1_555
C12 Si4 1_555 1_555
H26 C12 1_555 1_555
H27 C12 1_555 1_555
H28 C12 1_555 1_555
C13 Si4 1_555 1_555
H29 C13 1_555 1_555
H30 C13 1_555 1_555
H31 C13 1_555 1_555
C14 Si5 1_555 1_555
H32 C14 1_555 1_555
H33 C14 1_555 1_555
H34 C14 1_555 1_555
C15 Si5 1_555 1_555
H35 C15 1_555 1_555
H36 C15 1_555 1_555
H37 C15 1_555 1_555
C16 Si5 1_555 1_555
H38 C16 1_555 1_555
H39 C16 1_555 1_555
H40 C16 1_555 1_555
C17 O3 1_555 1_555
Si1A O1A 1_555 1_555
Si2A C1A 1_555 1_555
Si3A C1A 1_555 1_555
Si4A C4A 1_555 1_555
Si5A C4A 1_555 1_555
O1A H41A 1_555 1_555
O3A C17 1_555 1_555
C1A Si1A 1_555 1_555
C2A C1A 1_555 1_555
H1A C2A 1_555 1_555
H2A C2A 1_555 1_555
C3A C2A 1_555 1_555
H3A C3A 1_555 1_555
H4A C3A 1_555 1_555
C4A Si1A 1_555 1_555
C5A Si2A 1_555 1_555
H5A C5A 1_555 1_555
H6A C5A 1_555 1_555
H7A C5A 1_555 1_555
C6A Si2A 1_555 1_555
H8A C6A 1_555 1_555
H9A C6A 1_555 1_555
H10A C6A 1_555 1_555
C7A Si2A 1_555 1_555
H11A C7A 1_555 1_555
H12A C7A 1_555 1_555
H13A C7A 1_555 1_555
C8A Si3A 1_555 1_555
H14A C8A 1_555 1_555
H15A C8A 1_555 1_555
H16A C8A 1_555 1_555
C9A Si3A 1_555 1_555
H17A C9A 1_555 1_555
H18A C9A 1_555 1_555
H19A C9A 1_555 1_555
C10A Si3A 1_555 1_555
H20A C10A 1_555 1_555
H21A C10A 1_555 1_555
H22A C10A 1_555 1_555
C11A Si4A 1_555 1_555
H23A C11A 1_555 1_555
H24A C11A 1_555 1_555
H25A C11A 1_555 1_555
C12A Si4A 1_555 1_555
H26A C12A 1_555 1_555
H27A C12A 1_555 1_555
H28A C12A 1_555 1_555
C13A Si4A 1_555 1_555
H29A C13A 1_555 1_555
H30A C13A 1_555 1_555
H31A C13A 1_555 1_555
C14A Si5A 1_555 1_555
H32A C14A 1_555 1_555
H33A C14A 1_555 1_555
H34A C14A 1_555 1_555
C15A Si5A 1_555 1_555
H35A C15A 1_555 1_555
H36A C15A 1_555 1_555
H37A C15A 1_555 1_555
C16A Si5A 1_555 1_555
H38A C16A 1_555 1_555
H39A C16A 1_555 1_555
H40A C16A 1_555 1_555
C3 C4 1_555 1_555
Si1A O3A 1_555 1_555
C3A C4A 1_555 1_555

#END
