
#######################################################################
#
#                 Cambridge Crystallographic Data Centre
#                                CCDC 
#
#######################################################################
#
# If this CIF has been generated from an entry in the Cambridge 
# Structural Database, then it will include bibliographic, chemical, 
# crystal, experimental, refinement or atomic coordinate data resulting 
# from the CCDC's data processing and validation procedures.
#
#######################################################################

data_ZOXLED
_chemical_compound_source        'coral Sinularia gibberosa'
_chemical_formula_moiety         'C20 H32 O3'
_chemical_name_systematic        Sinugibberol
_chemical_properties_biological  'cytotoxic activity'
_symmetry_cell_setting           orthorhombic
_symmetry_space_group_name_H-M   'P 21 21 21'
_symmetry_Int_Tables_number      19
_space_group_name_Hall           'P 2ac 2ab'
loop_
_symmetry_equiv_pos_site_id
_symmetry_equiv_pos_as_xyz
1 x,y,z
2 1/2-x,-y,1/2+z
3 1/2+x,1/2-y,-z
4 -x,1/2+y,1/2-z
_cell_length_a                   18.606(3)
_cell_length_b                   19.121(2)
_cell_length_c                   10.726(2)
_cell_angle_alpha                90
_cell_angle_beta                 90
_cell_angle_gamma                90
_cell_volume                     3815.94
_exptl_crystal_colour            colorless
_chemical_melting_point          142-144deg.C
_cell_formula_units_Z            8
loop_
_atom_site_label
_atom_site_type_symbol
_atom_site_fract_x
_atom_site_fract_y
_atom_site_fract_z
O1 O 0.3945(3) 0.2193(3) 0.0885(6)
O2 O 0.6631(3) 0.4144(3) -0.0371(5)
O3 O 0.2867(3) 0.4464(3) 0.0131(5)
C1 C 0.3967(4) 0.3921(3) -0.0676(7)
C2 C 0.3772(4) 0.3343(3) -0.0097(7)
C3 C 0.4234(4) 0.2714(4) 0.0032(8)
C4 C 0.4018(5) 0.2012(4) -0.0392(9)
C5 C 0.4614(6) 0.1465(5) -0.056(1)
C6 C 0.4969(6) 0.1399(5) -0.1711(10)
C7 C 0.5397(5) 0.2006(4) -0.2182(8)
C8 C 0.6096(5) 0.2091(4) -0.2158(8)
C9 C 0.6462(4) 0.2694(4) -0.2782(8)
C10 C 0.6894(4) 0.3185(4) -0.1943(8)
C11 C 0.6384(4) 0.3510(4) -0.1014(7)
C12 C 0.6008(4) 0.4171(4) -0.1210(7)
C13 C 0.5298(4) 0.4253(4) -0.0568(7)
C14 C 0.4674(4) 0.3990(3) -0.1360(7)
C15 C 0.3438(4) 0.4534(4) -0.0754(7)
C16 C 0.3063(4) 0.4529(4) -0.2014(8)
C17 C 0.3801(4) 0.5240(4) -0.0538(8)
C18 C 0.3321(6) 0.1933(5) -0.107(1)
C19 C 0.6602(5) 0.1586(4) -0.1527(10)
C20 C 0.6120(4) 0.4601(5) -0.2352(8)
O4 O 0.5835(3) 0.2294(3) 0.1588(5)
O5 O 0.3385(2) 0.4319(3) 0.2719(5)
O6 O 0.7203(2) 0.4432(2) 0.2181(5)
C21 C 0.6036(4) 0.4050(3) 0.3016(7)
C22 C 0.6168(4) 0.3422(4) 0.2517(7)
C23 C 0.5646(3) 0.2843(4) 0.2470(7)
C24 C 0.5805(4) 0.2125(4) 0.2896(8)
C25 C 0.5182(4) 0.1645(4) 0.3221(8)
C26 C 0.4948(4) 0.1658(4) 0.4584(8)
C27 C 0.4578(4) 0.2338(4) 0.4972(7)
C28 C 0.3892(4) 0.2445(4) 0.5090(8)
C29 C 0.3591(4) 0.3141(4) 0.5550(7)
C30 C 0.3156(4) 0.3556(4) 0.4601(8)
C31 C 0.3637(4) 0.3767(4) 0.3522(7)
C32 C 0.4024(4) 0.4429(4) 0.3482(7)
C33 C 0.4728(4) 0.4433(4) 0.2799(7)
C34 C 0.5346(4) 0.4219(3) 0.3668(7)
C35 C 0.6619(4) 0.4620(4) 0.2993(8)
C36 C 0.6953(4) 0.4707(4) 0.4269(8)
C37 C 0.6319(4) 0.5321(4) 0.2520(8)
C38 C 0.6520(4) 0.1970(4) 0.3483(9)
C39 C 0.3321(5) 0.1901(4) 0.4853(10)
C40 C 0.3927(4) 0.4982(4) 0.4463(7)
loop_
_geom_bond_atom_site_label_1
_geom_bond_atom_site_label_2
_geom_bond_site_symmetry_1
_geom_bond_site_symmetry_2
O1 C3 1_555 1_555
O2 C11 1_555 1_555
O3 C15 1_555 1_555
O4 C23 1_555 1_555
O5 C31 1_555 1_555
O6 C35 1_555 1_555
C1 C2 1_555 1_555
C2 C3 1_555 1_555
C3 C4 1_555 1_555
C4 O1 1_555 1_555
C5 C4 1_555 1_555
C6 C5 1_555 1_555
C7 C6 1_555 1_555
C8 C7 1_555 1_555
C9 C8 1_555 1_555
C10 C9 1_555 1_555
C11 C10 1_555 1_555
C12 O2 1_555 1_555
C13 C12 1_555 1_555
C14 C1 1_555 1_555
C15 C1 1_555 1_555
C16 C15 1_555 1_555
C17 C15 1_555 1_555
C18 C4 1_555 1_555
C19 C8 1_555 1_555
C20 C12 1_555 1_555
C21 C22 1_555 1_555
C22 C23 1_555 1_555
C23 C24 1_555 1_555
C24 O4 1_555 1_555
C25 C24 1_555 1_555
C26 C25 1_555 1_555
C27 C26 1_555 1_555
C28 C27 1_555 1_555
C29 C28 1_555 1_555
C30 C29 1_555 1_555
C31 C30 1_555 1_555
C32 O5 1_555 1_555
C33 C32 1_555 1_555
C34 C21 1_555 1_555
C35 C21 1_555 1_555
C36 C35 1_555 1_555
C37 C35 1_555 1_555
C38 C24 1_555 1_555
C39 C28 1_555 1_555
C40 C32 1_555 1_555
C11 C12 1_555 1_555
C13 C14 1_555 1_555
C31 C32 1_555 1_555
C33 C34 1_555 1_555

#END
