
#######################################################################
#
#                 Cambridge Crystallographic Data Centre
#                                CCDC 
#
#######################################################################
#
# If this CIF has been generated from an entry in the Cambridge 
# Structural Database, then it will include bibliographic, chemical, 
# crystal, experimental, refinement or atomic coordinate data resulting 
# from the CCDC's data processing and validation procedures.
#
#######################################################################

data_ZOXQOU
_chemical_formula_moiety         'C80 H100 Mg2 N4 O2,2(C7 H8)'
_chemical_name_systematic        
'bis(\m-phenylmethanolato)-(N-(2-((2,6-diisopropylphenyl)imino)-3-phenylpropyl)-2,6-diisopropylanilinato)-di-magnesium toluene solvate'
_symmetry_cell_setting           triclinic
_symmetry_space_group_name_H-M   'P -1'
_symmetry_Int_Tables_number      2
_space_group_name_Hall           '-P 1'
loop_
_symmetry_equiv_pos_site_id
_symmetry_equiv_pos_as_xyz
1 x,y,z
2 -x,-y,-z
_cell_length_a                   11.523(5)
_cell_length_b                   12.684(5)
_cell_length_c                   15.762(5)
_cell_angle_alpha                79.062(5)
_cell_angle_beta                 73.256(5)
_cell_angle_gamma                67.014(5)
_cell_volume                     2023.09
_exptl_crystal_colour            yellow
_exptl_crystal_description       platelet
_cell_formula_units_Z            1
loop_
_atom_site_label
_atom_site_type_symbol
_atom_site_fract_x
_atom_site_fract_y
_atom_site_fract_z
Mg1 Mg 0.03220(7) 0.44964(6) 0.41723(4)
N1 N 0.14887(17) 0.32455(15) 0.34042(11)
N2 N -0.04699(16) 0.52006(14) 0.30251(11)
O1 O 0.08988(14) 0.54608(13) 0.46629(9)
C1 C 0.1444(2) 0.35978(17) 0.24878(13)
H1 H 0.2251 0.3704 0.2166
H2 H 0.1387 0.2983 0.2236
C2 C 0.0334(2) 0.46870(18) 0.23403(13)
C3 C -0.16558(19) 0.61604(18) 0.29247(13)
C4 C -0.1700(2) 0.72996(19) 0.27907(14)
C5 C -0.2892(2) 0.8173(2) 0.27292(15)
H3 H -0.2948 0.8935 0.2643
C6 C -0.3978(2) 0.7930(2) 0.27929(15)
H4 H -0.4750 0.8523 0.2733
C7 C -0.3920(2) 0.6800(2) 0.29469(15)
H5 H -0.4662 0.6641 0.3003
C8 C -0.2763(2) 0.58984(19) 0.30185(14)
C9 C -0.2764(2) 0.4678(2) 0.32115(16)
H6 H -0.1971 0.4187 0.3406
C10 C -0.3921(2) 0.4583(2) 0.39528(16)
H7 H -0.4695 0.4918 0.3733
H8 H -0.4016 0.4984 0.4442
H9 H -0.3780 0.3788 0.4149
C11 C -0.2755(3) 0.4214(3) 0.23803(19)
H10 H -0.3545 0.4657 0.2195
H11 H -0.2685 0.3424 0.2513
H12 H -0.2028 0.4270 0.1912
C12 C -0.0560(2) 0.7628(2) 0.27503(16)
H13 H 0.0195 0.6920 0.2774
C13 C -0.0234(3) 0.8350(2) 0.18823(18)
H14 H -0.0937 0.9074 0.1866
H15 H -0.0105 0.7947 0.1386
H16 H 0.0544 0.8482 0.1851
C14 C -0.0825(3) 0.8283(2) 0.35558(18)
H17 H -0.0993 0.7811 0.4095
H18 H -0.1566 0.8979 0.3547
H19 H -0.0081 0.8468 0.3527
C15 C 0.2042(2) 0.20419(17) 0.36044(13)
C16 C 0.3235(2) 0.15528(18) 0.38658(14)
C17 C 0.3701(2) 0.03829(19) 0.41331(15)
H20 H 0.4470 0.0073 0.4323
C18 C 0.3057(2) -0.0329(2) 0.41249(16)
H21 H 0.3385 -0.1108 0.4307
C19 C 0.1918(2) 0.0132(2) 0.38418(16)
H22 H 0.1487 -0.0348 0.3827
C20 C 0.1397(2) 0.12981(18) 0.35771(14)
C21 C 0.0114(2) 0.1728(2) 0.33066(16)
H23 H -0.0144 0.2563 0.3169
C22 C -0.0951(2) 0.1490(2) 0.40663(19)
H24 H -0.1051 0.1856 0.4576
H25 H -0.0718 0.0676 0.4217
H26 H -0.1754 0.1789 0.3883
C23 C 0.0239(3) 0.1200(2) 0.24713(18)
H27 H -0.0578 0.1510 0.2308
H28 H 0.0487 0.0381 0.2591
H29 H 0.0888 0.1379 0.1993
C24 C 0.3763(3) 0.2573(2) 0.48289(17)
H30 H 0.4026 0.1878 0.5208
H31 H 0.2856 0.2994 0.5047
H32 H 0.4256 0.3034 0.4826
C25 C 0.4000(2) 0.2275(2) 0.38859(15)
H33 H 0.3695 0.2996 0.3519
C26 C 0.5467(2) 0.1693(2) 0.35062(18)
H34 H 0.5611 0.1437 0.2937
H35 H 0.5815 0.1045 0.3905
H36 H 0.5889 0.2233 0.3441
C27 C 0.0228(2) 0.5134(2) 0.13941(15)
H37 H 0.0445 0.5824 0.1242
H38 H -0.0667 0.5351 0.1367
C28 C 0.1087(2) 0.4296(2) 0.06991(15)
C29 C 0.0737(3) 0.3397(2) 0.05960(18)
H39 H -0.0036 0.3329 0.0947
C30 C 0.1521(4) 0.2608(3) -0.0018(2)
H40 H 0.1277 0.2011 -0.0073
C31 C 0.2642(4) 0.2704(3) -0.0541(2)
H41 H 0.3161 0.2173 -0.0955
C32 C 0.3019(3) 0.3573(3) -0.04638(19)
H42 H 0.3793 0.3631 -0.0823
C33 C 0.2228(3) 0.4382(3) 0.01642(17)
H43 H 0.2480 0.4976 0.0216
C34 C 0.2057(2) 0.5693(2) 0.44666(15)
H44 H 0.1943 0.6249 0.4858
H45 H 0.2748 0.4991 0.4597
C35 C 0.2474(2) 0.61515(18) 0.35112(15)
C36 C 0.2817(2) 0.5480(2) 0.28099(16)
H46 H 0.2775 0.4748 0.2925
C37 C 0.3221(2) 0.5901(2) 0.19402(17)
H47 H 0.3436 0.5450 0.1477
C38 C 0.3308(2) 0.6980(2) 0.17546(17)
H48 H 0.3581 0.7257 0.1171
C39 C 0.2985(2) 0.7645(2) 0.24469(17)
H49 H 0.3039 0.8373 0.2330
C40 C 0.2579(2) 0.7227(2) 0.33188(16)
H50 H 0.2375 0.7677 0.3780
Mg1A Mg -0.03220(7) 0.55036(6) 0.58277(4)
N1A N -0.14887(17) 0.67545(15) 0.65958(11)
N2A N 0.04699(16) 0.47994(14) 0.69749(11)
O1A O -0.08988(14) 0.45392(13) 0.53371(9)
C1A C -0.1444(2) 0.64022(17) 0.75122(13)
H1A H -0.2251 0.6296 0.7834
H2A H -0.1387 0.7017 0.7764
C2A C -0.0334(2) 0.53130(18) 0.76597(13)
C3A C 0.16558(19) 0.38396(18) 0.70753(13)
C4A C 0.1700(2) 0.27004(19) 0.72093(14)
C5A C 0.2892(2) 0.1827(2) 0.72708(15)
H3A H 0.2948 0.1065 0.7357
C6A C 0.3978(2) 0.2070(2) 0.72071(15)
H4A H 0.4750 0.1477 0.7267
C7A C 0.3920(2) 0.3200(2) 0.70531(15)
H5A H 0.4662 0.3359 0.6997
C8A C 0.2763(2) 0.41016(19) 0.69815(14)
C9A C 0.2764(2) 0.5322(2) 0.67885(16)
H6A H 0.1971 0.5813 0.6594
C10A C 0.3921(2) 0.5417(2) 0.60472(16)
H7A H 0.4695 0.5082 0.6267
H8A H 0.4016 0.5016 0.5558
H9A H 0.3780 0.6212 0.5851
C11A C 0.2755(3) 0.5786(3) 0.76197(19)
H10A H 0.3545 0.5343 0.7805
H11A H 0.2685 0.6576 0.7487
H12A H 0.2028 0.5730 0.8088
C12A C 0.0560(2) 0.2372(2) 0.72497(16)
H13A H -0.0195 0.3080 0.7226
C13A C 0.0234(3) 0.1650(2) 0.81177(18)
H14A H 0.0937 0.0926 0.8134
H15A H 0.0105 0.2053 0.8614
H16A H -0.0544 0.1518 0.8149
C14A C 0.0825(3) 0.1717(2) 0.64442(18)
H17A H 0.0993 0.2189 0.5905
H18A H 0.1566 0.1021 0.6453
H19A H 0.0081 0.1532 0.6473
C15A C -0.2042(2) 0.79581(17) 0.63956(13)
C16A C -0.3235(2) 0.84472(18) 0.61342(14)
C17A C -0.3701(2) 0.96171(19) 0.58669(15)
H20A H -0.4470 0.9927 0.5677
C18A C -0.3057(2) 1.0329(2) 0.58751(16)
H21A H -0.3385 1.1108 0.5693
C19A C -0.1918(2) 0.9868(2) 0.61582(16)
H22A H -0.1487 1.0348 0.6173
C20A C -0.1397(2) 0.87019(18) 0.64229(14)
C21A C -0.0114(2) 0.8272(2) 0.66934(16)
H23A H 0.0144 0.7437 0.6831
C22A C 0.0951(2) 0.8510(2) 0.59337(19)
H24A H 0.1051 0.8144 0.5424
H25A H 0.0718 0.9324 0.5783
H26A H 0.1754 0.8211 0.6117
C23A C -0.0239(3) 0.8800(2) 0.75287(18)
H27A H 0.0578 0.8490 0.7692
H28A H -0.0487 0.9619 0.7409
H29A H -0.0888 0.8621 0.8007
C24A C -0.3763(3) 0.7427(2) 0.51711(17)
H30A H -0.4026 0.8122 0.4792
H31A H -0.2856 0.7006 0.4953
H32A H -0.4256 0.6966 0.5174
C25A C -0.4000(2) 0.7725(2) 0.61141(15)
H33A H -0.3695 0.7004 0.6481
C26A C -0.5467(2) 0.8307(2) 0.64938(18)
H34A H -0.5611 0.8563 0.7063
H35A H -0.5815 0.8955 0.6095
H36A H -0.5889 0.7767 0.6559
C27A C -0.0228(2) 0.4866(2) 0.86059(15)
H37A H -0.0445 0.4176 0.8758
H38A H 0.0667 0.4649 0.8633
C28A C -0.1087(2) 0.5704(2) 0.93009(15)
C29A C -0.0737(3) 0.6603(2) 0.94040(18)
H39A H 0.0036 0.6671 0.9053
C30A C -0.1521(4) 0.7392(3) 1.0018(2)
H40A H -0.1277 0.7989 1.0073
C31A C -0.2642(4) 0.7296(3) 1.0541(2)
H41A H -0.3161 0.7827 1.0955
C32A C -0.3019(3) 0.6427(3) 1.04638(19)
H42A H -0.3793 0.6369 1.0823
C33A C -0.2228(3) 0.5618(3) 0.98358(17)
H43A H -0.2480 0.5024 0.9784
C34A C -0.2057(2) 0.4307(2) 0.55334(15)
H44A H -0.1943 0.3751 0.5142
H45A H -0.2748 0.5009 0.5403
C35A C -0.2474(2) 0.38485(18) 0.64888(15)
C36A C -0.2817(2) 0.4520(2) 0.71901(16)
H46A H -0.2775 0.5252 0.7075
C37A C -0.3221(2) 0.4099(2) 0.80598(17)
H47A H -0.3436 0.4550 0.8523
C38A C -0.3308(2) 0.3020(2) 0.82454(17)
H48A H -0.3581 0.2743 0.8829
C39A C -0.2985(2) 0.2355(2) 0.75531(17)
H49A H -0.3039 0.1627 0.7670
C40A C -0.2579(2) 0.2773(2) 0.66812(16)
H50A H -0.2375 0.2323 0.6220
C41 C 0.4512(4) 0.0943(3) 0.1250(3)
H51 H 0.4300 0.0808 0.1887
H52 H 0.4780 0.0234 0.0990
H53 H 0.3764 0.1491 0.1058
C42 C 0.5590(3) 0.1403(3) 0.0965(2)
C43 C 0.5365(4) 0.2530(4) 0.1056(2)
H54 H 0.4519 0.3005 0.1286
C44 C 0.6327(4) 0.2988(5) 0.0823(3)
H55 H 0.6125 0.3759 0.0885
C45 C 0.7567(4) 0.2311(5) 0.0504(3)
H56 H 0.8228 0.2608 0.0364
C46 C 0.7847(4) 0.1191(5) 0.0390(4)
H57 H 0.8698 0.0727 0.0161
C47 C 0.6850(4) 0.0733(4) 0.0617(3)
H58 H 0.7048 -0.0029 0.0531
loop_
_geom_bond_atom_site_label_1
_geom_bond_atom_site_label_2
_geom_bond_site_symmetry_1
_geom_bond_site_symmetry_2
Mg1 N1 1_555 1_555
N1 C1 1_555 1_555
N2 Mg1 1_555 1_555
O1 Mg1 1_555 1_555
C1 H1 1_555 1_555
H2 C1 1_555 1_555
C2 N2 1_555 1_555
C3 N2 1_555 1_555
C4 C3 1_555 1_555
C5 C4 1_555 1_555
H3 C5 1_555 1_555
C6 C5 1_555 1_555
H4 C6 1_555 1_555
C7 C6 1_555 1_555
H5 C7 1_555 1_555
C8 C3 1_555 1_555
C9 C8 1_555 1_555
H6 C9 1_555 1_555
C10 C9 1_555 1_555
H7 C10 1_555 1_555
H8 C10 1_555 1_555
H9 C10 1_555 1_555
C11 C9 1_555 1_555
H10 C11 1_555 1_555
H11 C11 1_555 1_555
H12 C11 1_555 1_555
C12 C4 1_555 1_555
H13 C12 1_555 1_555
C13 C12 1_555 1_555
H14 C13 1_555 1_555
H15 C13 1_555 1_555
H16 C13 1_555 1_555
C14 C12 1_555 1_555
H17 C14 1_555 1_555
H18 C14 1_555 1_555
H19 C14 1_555 1_555
C15 N1 1_555 1_555
C16 C15 1_555 1_555
C17 C16 1_555 1_555
H20 C17 1_555 1_555
C18 C17 1_555 1_555
H21 C18 1_555 1_555
C19 C18 1_555 1_555
H22 C19 1_555 1_555
C20 C15 1_555 1_555
C21 C20 1_555 1_555
H23 C21 1_555 1_555
C22 C21 1_555 1_555
H24 C22 1_555 1_555
H25 C22 1_555 1_555
H26 C22 1_555 1_555
C23 C21 1_555 1_555
H27 C23 1_555 1_555
H28 C23 1_555 1_555
H29 C23 1_555 1_555
C24 H30 1_555 1_555
H31 C24 1_555 1_555
H32 C24 1_555 1_555
C25 C16 1_555 1_555
H33 C25 1_555 1_555
C26 C25 1_555 1_555
H34 C26 1_555 1_555
H35 C26 1_555 1_555
H36 C26 1_555 1_555
C27 C2 1_555 1_555
H37 C27 1_555 1_555
H38 C27 1_555 1_555
C28 C27 1_555 1_555
C29 C28 1_555 1_555
H39 C29 1_555 1_555
C30 C29 1_555 1_555
H40 C30 1_555 1_555
C31 C30 1_555 1_555
H41 C31 1_555 1_555
C32 C31 1_555 1_555
H42 C32 1_555 1_555
C33 C28 1_555 1_555
H43 C33 1_555 1_555
C34 O1 1_555 1_555
H44 C34 1_555 1_555
H45 C34 1_555 1_555
C35 C34 1_555 1_555
C36 C35 1_555 1_555
H46 C36 1_555 1_555
C37 C36 1_555 1_555
H47 C37 1_555 1_555
C38 C37 1_555 1_555
H48 C38 1_555 1_555
C39 C38 1_555 1_555
H49 C39 1_555 1_555
C40 C35 1_555 1_555
H50 C40 1_555 1_555
C41 H51 1_555 1_555
H52 C41 1_555 1_555
H53 C41 1_555 1_555
C42 C41 1_555 1_555
C43 C42 1_555 1_555
H54 C43 1_555 1_555
C44 C43 1_555 1_555
H55 C44 1_555 1_555
C45 C44 1_555 1_555
H56 C45 1_555 1_555
C46 C45 1_555 1_555
H57 C46 1_555 1_555
C47 C42 1_555 1_555
H58 C47 1_555 1_555
Mg1A O1 1_555 1_555
N1A Mg1A 1_555 1_555
N2A Mg1A 1_555 1_555
O1A Mg1 1_555 1_555
C1A N1A 1_555 1_555
H1A C1A 1_555 1_555
H2A C1A 1_555 1_555
C2A N2A 1_555 1_555
C3A N2A 1_555 1_555
C4A C3A 1_555 1_555
C5A C4A 1_555 1_555
H3A C5A 1_555 1_555
C6A C5A 1_555 1_555
H4A C6A 1_555 1_555
C7A C6A 1_555 1_555
H5A C7A 1_555 1_555
C8A C3A 1_555 1_555
C9A C8A 1_555 1_555
H6A C9A 1_555 1_555
C10A C9A 1_555 1_555
H7A C10A 1_555 1_555
H8A C10A 1_555 1_555
H9A C10A 1_555 1_555
C11A C9A 1_555 1_555
H10A C11A 1_555 1_555
H11A C11A 1_555 1_555
H12A C11A 1_555 1_555
C12A C4A 1_555 1_555
H13A C12A 1_555 1_555
C13A C12A 1_555 1_555
H14A C13A 1_555 1_555
H15A C13A 1_555 1_555
H16A C13A 1_555 1_555
C14A C12A 1_555 1_555
H17A C14A 1_555 1_555
H18A C14A 1_555 1_555
H19A C14A 1_555 1_555
C15A N1A 1_555 1_555
C16A C15A 1_555 1_555
C17A C16A 1_555 1_555
H20A C17A 1_555 1_555
C18A C17A 1_555 1_555
H21A C18A 1_555 1_555
C19A C18A 1_555 1_555
H22A C19A 1_555 1_555
C20A C15A 1_555 1_555
C21A C20A 1_555 1_555
H23A C21A 1_555 1_555
C22A C21A 1_555 1_555
H24A C22A 1_555 1_555
H25A C22A 1_555 1_555
H26A C22A 1_555 1_555
C23A C21A 1_555 1_555
H27A C23A 1_555 1_555
H28A C23A 1_555 1_555
H29A C23A 1_555 1_555
C24A H30A 1_555 1_555
H31A C24A 1_555 1_555
H32A C24A 1_555 1_555
C25A C16A 1_555 1_555
H33A C25A 1_555 1_555
C26A C25A 1_555 1_555
H34A C26A 1_555 1_555
H35A C26A 1_555 1_555
H36A C26A 1_555 1_555
C27A C2A 1_555 1_555
H37A C27A 1_555 1_555
H38A C27A 1_555 1_555
C28A C27A 1_555 1_555
C29A C28A 1_555 1_555
H39A C29A 1_555 1_555
C30A C29A 1_555 1_555
H40A C30A 1_555 1_555
C31A C30A 1_555 1_555
H41A C31A 1_555 1_555
C32A C31A 1_555 1_555
H42A C32A 1_555 1_555
C33A C28A 1_555 1_555
H43A C33A 1_555 1_555
C34A O1A 1_555 1_555
H44A C34A 1_555 1_555
H45A C34A 1_555 1_555
C35A C34A 1_555 1_555
C36A C35A 1_555 1_555
H46A C36A 1_555 1_555
C37A C36A 1_555 1_555
H47A C37A 1_555 1_555
C38A C37A 1_555 1_555
H48A C38A 1_555 1_555
C39A C38A 1_555 1_555
H49A C39A 1_555 1_555
C40A C35A 1_555 1_555
H50A C40A 1_555 1_555
C1 C2 1_555 1_555
C7 C8 1_555 1_555
C19 C20 1_555 1_555
C24 C25 1_555 1_555
C32 C33 1_555 1_555
C39 C40 1_555 1_555
C46 C47 1_555 1_555
Mg1A O1A 1_555 1_555
C1A C2A 1_555 1_555
C7A C8A 1_555 1_555
C19A C20A 1_555 1_555
C24A C25A 1_555 1_555
C32A C33A 1_555 1_555
C39A C40A 1_555 1_555

#END
