
#######################################################################
#
#                 Cambridge Crystallographic Data Centre
#                                CCDC 
#
#######################################################################
#
# If this CIF has been generated from an entry in the Cambridge 
# Structural Database, then it will include bibliographic, chemical, 
# crystal, experimental, refinement or atomic coordinate data resulting 
# from the CCDC's data processing and validation procedures.
#
#######################################################################

data_ZOYMUV
_chemical_name_common            '3-beta-Hydroxy-5-androsten-17-one hydrate'
_chemical_formula_moiety         'C19 H28 O2,0.25(H2 O1)'
_chemical_name_systematic        'Dehydroepiandrosterone hydrate'
_chemical_properties_biological  'therapeutic agent'
_symmetry_cell_setting           monoclinic
_symmetry_space_group_name_H-M   'C 2'
_symmetry_Int_Tables_number      5
_space_group_name_Hall           'C 2y'
loop_
_symmetry_equiv_pos_site_id
_symmetry_equiv_pos_as_xyz
1 x,y,z
2 -x,y,-z
3 1/2+x,1/2+y,z
4 1/2-x,1/2+y,-z
_cell_length_a                   22.698(4)
_cell_length_b                   7.331(1)
_cell_length_c                   20.241(3)
_cell_angle_alpha                90
_cell_angle_beta                 93.01(1)
_cell_angle_gamma                90
_cell_volume                     3363.44
_cell_formula_units_Z            8
loop_
_atom_site_label
_atom_site_type_symbol
_atom_site_fract_x
_atom_site_fract_y
_atom_site_fract_z
O1 O 0.4093(2) 0.1928 0.5675(3)
O2 O -0.0653(2) 0.0610(13) 0.6056(3)
C1 C 0.2568(2) -0.0024(13) 0.5620(3)
C2 C 0.3243(2) 0.0021(15) 0.5624(3)
C3 C 0.3467(3) 0.1927(14) 0.5691(3)
C4 C 0.3260(2) 0.2782(14) 0.6323(3)
C5 C 0.2597(2) 0.2736(12) 0.6332(3)
C6 C 0.2309(3) 0.4229(13) 0.6448(3)
C7 C 0.1652(3) 0.4392(13) 0.6493(3)
C8 C 0.1364(2) 0.2520(12) 0.6551(3)
C9 C 0.1626(2) 0.1163(12) 0.6075(2)
C10 C 0.2299(2) 0.0916(12) 0.6224(2)
C11 C 0.1287(3) -0.0652(13) 0.6038(3)
C12 C 0.0618(2) -0.0416(14) 0.5905(3)
C13 C 0.0377(3) 0.0842(3) 0.6416(3)
C14 C 0.0700(2) 0.2656(12) 0.6406(3)
C15 C 0.0326(3) 0.3923(14) 0.6804(4)
C16 C -0.0303(3) 0.3345(15) 0.6595(4)
C17 C -0.0259(3) 0.1489(15) 0.6319(3)
C18 C 0.0405(3) -0.0061(14) 0.7109(3)
C19 C 0.2424(3) -0.0280(14) 0.6838(3)
O3 O 0.5424(2) 0.0964(11) 0.1010(2)
O4 O 0.0739(2) 0.2726(12) 0.1811(3)
C20 C 0.3915(3) 0.2981(13) 0.1106(3)
C21 C 0.4558(3) 0.2799(14) 0.0904(4)
C22 C 0.4828(2) 0.1101(15) 0.1208(3)
C23 C 0.4469(3) -0.0545(14) 0.0986(3)
C24 C 0.3834(2) -0.0397(13) 0.1154(3)
C25 C 0.3571(3) -0.1713(12) 0.1483(3)
C26 C 0.2946(2) -0.1680(12) 0.1664(3)
C27 C 0.2577(2) -0.0234(12) 0.1296(2)
C28 C 0.2933(2) 0.1562(12) 0.1273(2)
C29 C 0.3518(2) 0.1355(12) 0.0921(2)
C30 C 0.2551(2) 0.3147(13) 0.0996(3)
C31 C 0.1969(3) 0.3400(13) 0.1335(3)
C32 C 0.1625(2) 0.1613(13) 0.1314(2)
C33 C 0.2005(2) 0.0120(12) 0.1638(3)
C34 C 0.1581(2) -0.1427(14) 0.1767(3)
C35 C 0.1041(3) -0.0397(15) 0.1997(3)
C36 C 0.1085(3) 0.1520(14) 0.1717(3)
C37 C 0.1383(3) 0.1153(14) 0.0605(3)
C38 C 0.3411(2) 0.1230(13) 0.0167(3)
O5 O 0.5000 -0.0089(17) 0.5000
loop_
_geom_bond_atom_site_label_1
_geom_bond_atom_site_label_2
_geom_bond_site_symmetry_1
_geom_bond_site_symmetry_2
O1 C3 1_555 1_555
O2 C17 1_555 1_555
C1 C2 1_555 1_555
C2 C3 1_555 1_555
C3 C4 1_555 1_555
C4 C5 1_555 1_555
C5 C6 1_555 1_555
C6 C7 1_555 1_555
C7 C8 1_555 1_555
C8 C9 1_555 1_555
C9 C10 1_555 1_555
C10 C1 1_555 1_555
C11 C9 1_555 1_555
C12 C11 1_555 1_555
C13 C12 1_555 1_555
C14 C8 1_555 1_555
C15 C14 1_555 1_555
C16 C15 1_555 1_555
C17 C13 1_555 1_555
C18 C13 1_555 1_555
C19 C10 1_555 1_555
O3 C22 1_555 1_555
O4 C36 1_555 1_555
C20 C21 1_555 1_555
C21 C22 1_555 1_555
C22 C23 1_555 1_555
C23 C24 1_555 1_555
C24 C25 1_555 1_555
C25 C26 1_555 1_555
C26 C27 1_555 1_555
C27 C28 1_555 1_555
C28 C29 1_555 1_555
C29 C20 1_555 1_555
C30 C28 1_555 1_555
C31 C30 1_555 1_555
C32 C31 1_555 1_555
C33 C27 1_555 1_555
C34 C33 1_555 1_555
C35 C34 1_555 1_555
C36 C32 1_555 1_555
C37 C32 1_555 1_555
C38 C29 1_555 1_555
C5 C10 1_555 1_555
C13 C14 1_555 1_555
C16 C17 1_555 1_555
C24 C29 1_555 1_555
C32 C33 1_555 1_555
C35 C36 1_555 1_555

#END
