
#######################################################################
#
#                 Cambridge Crystallographic Data Centre
#                                CCDC 
#
#######################################################################
#
# If this CIF has been generated from an entry in the Cambridge 
# Structural Database, then it will include bibliographic, chemical, 
# crystal, experimental, refinement or atomic coordinate data resulting 
# from the CCDC's data processing and validation procedures.
#
#######################################################################

data_ZOZVAN
_chemical_formula_moiety         'C13 H13 F3 N4 O1'
_chemical_name_systematic        
4-(2-(4-(trifluoromethyl)phenyl)-2H-1,2,3-triazol-4-yl)morpholine
_symmetry_cell_setting           monoclinic
_symmetry_space_group_name_H-M   'P 21'
_symmetry_Int_Tables_number      4
_space_group_name_Hall           'P 2yb'
loop_
_symmetry_equiv_pos_site_id
_symmetry_equiv_pos_as_xyz
1 x,y,z
2 -x,1/2+y,-z
_cell_length_a                   4.782(5)
_cell_length_b                   10.537(5)
_cell_length_c                   13.565(5)
_cell_angle_alpha                90
_cell_angle_beta                 98.376(5)
_cell_angle_gamma                90
_cell_volume                     676.222
_exptl_crystal_colour            colorless
_exptl_crystal_description       block
_cell_formula_units_Z            2
loop_
_atom_site_label
_atom_site_type_symbol
_atom_site_fract_x
_atom_site_fract_y
_atom_site_fract_z
C1 C 0.9725(8) 0.2824(4) -0.1863(3)
C2 C 0.8631(6) 0.2686(3) -0.0901(2)
C3 C 0.7136(7) 0.1613(3) -0.0733(2)
H1 H 0.6939 0.0963 -0.1202
C4 C 0.5920(7) 0.1491(3) 0.0128(2)
H2 H 0.4911 0.0763 0.0240
C5 C 0.6221(6) 0.2462(3) 0.0819(2)
C6 C 0.7778(7) 0.3526(3) 0.0666(2)
H3 H 0.8033 0.4166 0.1143
C7 C 0.8963(6) 0.3632(3) -0.0206(2)
H4 H 0.9991 0.4353 -0.0317
C8 C 0.2524(7) 0.1640(3) 0.2725(2)
H5 H 0.1416 0.1123 0.3068
C9 C 0.3502(6) 0.2857(3) 0.3027(2)
C10 C 0.0919(6) 0.3094(3) 0.4417(2)
H6 H 0.0982 0.2179 0.4501
H7 H -0.0884 0.3316 0.4031
C11 C 0.1214(7) 0.3731(3) 0.5421(3)
H8 H -0.0350 0.3479 0.5760
H9 H 0.2951 0.3449 0.5821
C12 C 0.3597(7) 0.5435(3) 0.4868(3)
H10 H 0.5327 0.5149 0.5269
H11 H 0.3667 0.6353 0.4827
C13 C 0.3426(7) 0.4892(3) 0.3850(3)
H12 H 0.1784 0.5232 0.3428
H13 H 0.5096 0.5128 0.3564
N1 N 0.4891(6) 0.2363(2) 0.16779(19)
N2 N 0.3430(6) 0.1344(3) 0.1873(2)
N3 N 0.5002(5) 0.3315(2) 0.23558(17)
N4 N 0.3215(5) 0.3505(2) 0.38951(17)
O1 O 0.1251(4) 0.5074(2) 0.53382(17)
F1 F 1.1542(5) 0.3769(2) -0.18778(17)
F2 F 1.1071(5) 0.1798(2) -0.21229(16)
F3 F 0.7668(5) 0.3025(3) -0.26192(15)
loop_
_geom_bond_atom_site_label_1
_geom_bond_atom_site_label_2
_geom_bond_site_symmetry_1
_geom_bond_site_symmetry_2
C1 C2 1_555 1_555
C2 C3 1_555 1_555
C3 H1 1_555 1_555
C4 C3 1_555 1_555
H2 C4 1_555 1_555
C5 C4 1_555 1_555
C6 C5 1_555 1_555
H3 C6 1_555 1_555
C7 C2 1_555 1_555
H4 C7 1_555 1_555
C8 H5 1_555 1_555
C9 C8 1_555 1_555
C10 H6 1_555 1_555
H7 C10 1_555 1_555
C11 C10 1_555 1_555
H8 C11 1_555 1_555
H9 C11 1_555 1_555
C12 H10 1_555 1_555
H11 C12 1_555 1_555
C13 C12 1_555 1_555
H12 C13 1_555 1_555
H13 C13 1_555 1_555
N1 C5 1_555 1_555
N2 C8 1_555 1_555
N3 C9 1_555 1_555
N4 C9 1_555 1_555
O1 C11 1_555 1_555
F1 C1 1_555 1_555
F2 C1 1_555 1_555
F3 C1 1_555 1_555
C6 C7 1_555 1_555
C10 N4 1_555 1_555
C12 O1 1_555 1_555
C13 N4 1_555 1_555
N1 N2 1_555 1_555
N1 N3 1_555 1_555

#END
