
#######################################################################
#
#                 Cambridge Crystallographic Data Centre
#                                CCDC 
#
#######################################################################
#
# If this CIF has been generated from an entry in the Cambridge 
# Structural Database, then it will include bibliographic, chemical, 
# crystal, experimental, refinement or atomic coordinate data resulting 
# from the CCDC's data processing and validation procedures.
#
#######################################################################

data_ZUFRAV
_chemical_formula_moiety         'C11 H7 F3 O4'
_chemical_name_systematic        
3-(2,2,2-trifluoro-1,1-dihydroxyethyl)-2H-chromen-2-one
_symmetry_cell_setting           triclinic
_symmetry_space_group_name_H-M   'P -1'
_symmetry_Int_Tables_number      2
_space_group_name_Hall           '-P 1'
loop_
_symmetry_equiv_pos_site_id
_symmetry_equiv_pos_as_xyz
1 x,y,z
2 -x,-y,-z
_cell_length_a                   6.0431(3)
_cell_length_b                   9.6809(6)
_cell_length_c                   18.0434(11)
_cell_angle_alpha                88.622(5)
_cell_angle_beta                 88.408(5)
_cell_angle_gamma                80.784(5)
_cell_volume                     1041.35
_cell_formula_units_Z            4
loop_
_atom_site_label
_atom_site_type_symbol
_atom_site_fract_x
_atom_site_fract_y
_atom_site_fract_z
F1 F 0.7836(2) 0.52653(12) 0.44366(7)
F2 F 0.7276(2) 0.68246(14) 0.35685(7)
F3 F 1.01937(18) 0.66722(12) 0.42327(7)
O1 O 1.0459(2) 0.74637(14) 0.64824(8)
O2 O 1.0540(3) 0.86742(15) 0.54459(8)
O3 O 0.6928(3) 0.89751(16) 0.45459(9)
H1 H 0.808(5) 0.922(3) 0.4758(17)
O4 O 0.4555(3) 0.7405(2) 0.47524(10)
H2 H 0.389(4) 0.799(2) 0.5003(13)
C1 C 0.9563(3) 0.65337(19) 0.69492(11)
C2 C 1.0626(4) 0.6185(2) 0.76093(12)
H3 H 1.1870 0.6578 0.7733
C3 C 0.9807(5) 0.5244(2) 0.80799(13)
H4 H 1.0507 0.4993 0.8527
C4 C 0.7947(5) 0.4662(2) 0.78973(13)
H5 H 0.7413 0.4021 0.8220
C5 C 0.6893(4) 0.5030(2) 0.72422(12)
H6 H 0.5639 0.4642 0.7125
C6 C 0.7692(3) 0.5985(2) 0.67486(11)
C7 C 0.6765(3) 0.6396(2) 0.60446(11)
H7 H 0.5509 0.6038 0.5899
C8 C 0.7651(3) 0.72883(18) 0.55827(10)
C9 C 0.9595(3) 0.78629(19) 0.58122(11)
C10 C 0.6752(3) 0.7635(2) 0.48070(11)
C11 C 0.8022(3) 0.6590(2) 0.42558(11)
F4 F 0.4053(2) 0.81285(15) 1.04756(8)
F5 F 0.6550(2) 0.73754(15) 1.12688(7)
F6 F 0.6769(2) 0.92469(13) 1.06399(7)
O5 O 0.4905(2) 0.83017(15) 0.81623(8)
O6 O 0.3973(3) 0.68278(17) 0.90081(9)
O7 O 0.7010(3) 0.57607(15) 1.00027(10)
H8 H 0.582(5) 0.586(3) 0.9726(16)
O8 O 0.9793(2) 0.70130(17) 1.02139(8)
H9 H 1.067(5) 0.646(3) 0.9965(17)
C12 C 0.6297(3) 0.9196(2) 0.78770(11)
C13 C 0.5769(4) 0.9823(2) 0.71946(12)
H10 H 0.4520 0.9652 0.6943
C14 C 0.7139(5) 1.0704(3) 0.69003(13)
H11 H 0.6816 1.1135 0.6441
C15 C 0.8992(5) 1.0964(3) 0.72721(14)
H12 H 0.9901 1.1566 0.7062
C16 C 0.9496(4) 1.0338(2) 0.79490(13)
H13 H 1.0747 1.0516 0.8197
C17 C 0.8135(3) 0.9431(2) 0.82698(11)
C18 C 0.8531(3) 0.87265(19) 0.89675(10)
H14 H 0.9754 0.8877 0.9239
C19 C 0.7191(3) 0.78536(18) 0.92425(10)
C20 C 0.5285(3) 0.7610(2) 0.88244(11)
C21 C 0.7601(3) 0.71066(19) 0.99922(11)
C22 C 0.6230(4) 0.7961(2) 1.06026(12)
loop_
_geom_bond_atom_site_label_1
_geom_bond_atom_site_label_2
_geom_bond_site_symmetry_1
_geom_bond_site_symmetry_2
F1 C11 1_555 1_555
F2 C11 1_555 1_555
F3 C11 1_555 1_555
O1 C1 1_555 1_555
O2 C9 1_555 1_555
O3 H1 1_555 1_555
O4 H2 1_555 1_555
C1 C2 1_555 1_555
C2 H3 1_555 1_555
C3 C2 1_555 1_555
H4 C3 1_555 1_555
C4 C3 1_555 1_555
H5 C4 1_555 1_555
C5 C4 1_555 1_555
H6 C5 1_555 1_555
C6 C1 1_555 1_555
C7 C6 1_555 1_555
H7 C7 1_555 1_555
C8 C7 1_555 1_555
C9 O1 1_555 1_555
C10 O3 1_555 1_555
C11 C10 1_555 1_555
F4 C22 1_555 1_555
F5 C22 1_555 1_555
F6 C22 1_555 1_555
O5 C12 1_555 1_555
O6 C20 1_555 1_555
O7 H8 1_555 1_555
O8 H9 1_555 1_555
C12 C13 1_555 1_555
C13 H10 1_555 1_555
C14 C13 1_555 1_555
H11 C14 1_555 1_555
C15 C14 1_555 1_555
H12 C15 1_555 1_555
C16 C15 1_555 1_555
H13 C16 1_555 1_555
C17 C12 1_555 1_555
C18 C17 1_555 1_555
H14 C18 1_555 1_555
C19 C18 1_555 1_555
C20 O5 1_555 1_555
C21 O7 1_555 1_555
C22 C21 1_555 1_555
O4 C10 1_555 1_555
C5 C6 1_555 1_555
C8 C9 1_555 1_555
C8 C10 1_555 1_555
O8 C21 1_555 1_555
C16 C17 1_555 1_555
C19 C20 1_555 1_555
C19 C21 1_555 1_555

#END
