
#######################################################################
#
#                 Cambridge Crystallographic Data Centre
#                                CCDC 
#
#######################################################################
#
# If this CIF has been generated from an entry in the Cambridge 
# Structural Database, then it will include bibliographic, chemical, 
# crystal, experimental, refinement or atomic coordinate data resulting 
# from the CCDC's data processing and validation procedures.
#
#######################################################################

data_ZUFVEB
_chemical_name_common            
"5,5':11,11':17,17':23,23'-tetrakis(pentane-1,5-dioxy)-bis(6,10:12,16:18,22:24,4-O,O'-tetrakis(methylene)-C-phenylethylcalix[4]resorcinarene) acetonitrile clathrate unknown solvate decahydrate"
_chemical_formula_moiety         'C148 H144 O24,8(C2 H3 N1),10(H2 O1)'
_chemical_name_systematic        
'61,62,63,64,65,66,67,68-octakis(2-Phenylethyl)-2,4,6,8,10,16,18,20,22,24,26,28,30,36,38,40,41,47,48,54,55,57,58,60-tetracosaoxa-1,5,21,25(1,3,2,6,4),9(1,2,3,6,4),17,37(1,2,6,3,5),29(1,2,3,4,6)-octabenzena-tridecacyclo(23.15.7.7^5,21^,3^9,37^.3^17,29^.1^1,5^.1^1,37^.1^5,9^.1^9,37^.1^17,21^.1^17,29^.1^21,25^.1^25,29^)octahexacontaphane acetonitrile clathrate unknown solvate decahydrate'
_symmetry_cell_setting           triclinic
_symmetry_space_group_name_H-M   'P -1'
_symmetry_Int_Tables_number      2
_space_group_name_Hall           '-P 1'
loop_
_symmetry_equiv_pos_site_id
_symmetry_equiv_pos_as_xyz
1 x,y,z
2 -x,-y,-z
_cell_length_a                   18.207(4)
_cell_length_b                   21.478(4)
_cell_length_c                   11.911(2)
_cell_angle_alpha                101.56(2)
_cell_angle_beta                 102.57(2)
_cell_angle_gamma                105.16(2)
_cell_volume                     4221.1
_exptl_crystal_colour            Colorless
_cell_formula_units_Z            1
loop_
_atom_site_label
_atom_site_type_symbol
_atom_site_fract_x
_atom_site_fract_y
_atom_site_fract_z
O1 O -0.3031(6) 0.2515(5) 0.4951(9)
C1 C -0.2239(10) 0.2745(8) 0.4953(15)
H1 H -0.189 0.307 0.583
H2 H -0.221 0.303 0.431
O2 O -0.1935(6) 0.2234(5) 0.4655(9)
C2 C -0.1532(9) 0.2020(7) 0.5584(13)
C3 C -0.1981(9) 0.1572(7) 0.6083(13)
C4 C -0.1576(9) 0.1347(7) 0.6967(13)
H3 H -0.191 0.099 0.734
C5 C -0.0757(8) 0.1559(6) 0.7376(12)
C6 C -0.0351(9) 0.2002(7) 0.6830(13)
C7 C -0.0729(9) 0.2224(7) 0.5980(13)
O3 O -0.0283(6) 0.2628(5) 0.5400(8)
C8 C -0.0172(9) 0.3330(7) 0.5782(15)
H4 H -0.061 0.346 0.519
H5 H -0.023 0.346 0.668
C9 C 0.0641(10) 0.3700(8) 0.5778(15)
H6 H 0.107 0.358 0.641(2)
H7 H 0.070 0.354 0.489(2)
C10 C 0.0805(11) 0.4444(9) 0.6104(17)
H8 H 0.046 0.458 0.540(2)
H9 H 0.066 0.460 0.692
C11 C 0.1714(11) 0.4773(9) 0.6301(18)
H10 H 0.184 0.463 0.546(2)
H11 H 0.204 0.459 0.696(2)
C12 C 0.1965(11) 0.5480(9) 0.6687(16)
H12 H 0.259 0.568 0.678(2)
H13 H 0.164 0.567 0.605(2)
O4 O 0.1816(6) 0.5687(5) 0.7868(9)
O5 O 0.0489(6) 0.2207(5) 0.7165(9)
C13 C 0.0895(9) 0.2735(7) 0.8208(13)
H14 H 0.145 0.302 0.809
H15 H 0.053 0.306 0.833
O6 O 0.1072(6) 0.2519(5) 0.9255(9)
C14 C 0.0500(9) 0.2470(7) 0.9895(13)
C15 C -0.0153(8) 0.1886(7) 0.9524(12)
C16 C -0.0643(8) 0.1838(7) 1.0258(12)
H16 H -0.115 0.139 1.001
C17 C -0.0531(8) 0.2318(7) 1.1266(12)
C18 C 0.0136(9) 0.2896(7) 1.1581(14)
C19 C 0.0641(9) 0.2960(7) 1.0900(13)
O7 O 0.1259(6) 0.3560(5) 1.1173(9)
C20 C 0.1971(10) 0.3552(8) 1.1940(16)
H17 H 0.184 0.339 1.270(2)
H18 H 0.221 0.321 1.146(2)
C21 C 0.2584(11) 0.4239(8) 1.2386(17)
H19 H 0.269 0.441 1.163(2)
H20 H 0.313 0.422 1.293(2)
C22 C 0.2266(13) 0.4692(10) 1.3075(20)
H21 H 0.176 0.475 1.248(2)
H22 H 0.208 0.447 1.374(2)
C23 C 0.2925(16) 0.5433(13) 1.3785(24)
H23 H 0.351 0.538 1.401(2)
H24 H 0.278 0.561 1.460(2)
C24 C 0.2926(13) 0.5898(10) 1.3161(19)
H25 H 0.307 0.571 1.235(2)
H26 H 0.234 0.595 1.294(2)
O8 O 0.3476(6) 0.6546(5) 1.3752(9)
O9 O 0.0314(6) 0.3410(5) 1.2640(8)
C25 C -0.0125(9) 0.3851(8) 1.2608(14)
H27 H 0.025 0.434 1.317
H28 H -0.032 0.387 1.170
O10 O -0.0794(6) 0.3657(5) 1.3012(9)
C26 C -0.1499(10) 0.3282(8) 1.2087(14)
C27 C -0.1694(8) 0.2592(7) 1.1658(12)
C28 C -0.2407(9) 0.2260(7) 1.0777(13)
H29 H -0.256 0.173 1.040
C29 C -0.2940(9) 0.2591(7) 1.0362(13)
C30 C -0.2745(10) 0.3279(8) 1.0838(14)
C31 C 0.2001(9) 0.6390(7) 0.8281(13)
O11 O -0.3271(7) 0.3609(5) 1.0510(10)
C32 C -0.3238(10) 0.3839(8) 0.9499(14)
H30 H -0.338 0.430 0.962
H31 H -0.264 0.393 0.940
O12 O -0.3800(6) 0.3364(5) 0.8419(9)
C33 C -0.3527(9) 0.2887(8) 0.7783(15)
C34 C -0.3521(8) 0.2299(7) 0.8164(13)
C35 C -0.3281(8) 0.1830(7) 0.7486(12)
H32 H -0.322 0.141 0.781
C36 C -0.3120(8) 0.1885(7) 0.6410(13)
C37 C -0.3168(9) 0.2456(7) 0.6077(14)
C38 C 0.3368(9) 0.7060(7) 1.3293(14)
C39 C -0.3701(9) 0.2235(7) 0.9326(13)
H33 H -0.414 0.248 0.944
C40 C -0.4109(8) 0.1507(7) 0.9329(13)
H34 H -0.418 0.150 1.020
H35 H -0.375 0.120 0.911
C41 C -0.4932(9) 0.1227(7) 0.8383(14)
H36 H -0.485 0.126 0.752
H37 H -0.529 0.153 0.862
C42 C -0.6090(8) 0.0368(6) 0.8555(11)
C43 C -0.6521(8) -0.0297(6) 0.8417(11)
C44 C -0.6231(8) -0.0812(6) 0.8003(11)
C45 C -0.5510(8) -0.0662(6) 0.7727(11)
C46 C -0.5079(8) 0.0003(6) 0.7864(11)
C47 C -0.5369(8) 0.0518(6) 0.8278(11)
H38 H -0.632 0.077 0.888
H39 H -0.708 -0.041 0.863
H40 H -0.656 -0.133 0.790
H41 H -0.529 -0.106 0.741
H42 H -0.452 0.012 0.765
C48 C -0.2877(9) 0.1372(7) 0.5663(14)
H43 H -0.307 0.137 0.474
C49 C -0.3293(9) 0.0634(6) 0.5673(13)
H44 H -0.392 0.055 0.548
H45 H -0.307 0.058 0.656
C50 C -0.3167(10) 0.0103(7) 0.4790(14)
H46 H -0.330 0.021 0.393
H47 H -0.255 0.014 0.508
C51 C -0.4264(8) -0.0786(6) 0.5120(10)
C52 C -0.4679(8) -0.1460(6) 0.4949(10)
C53 C -0.4468(8) -0.1961(6) 0.4279(10)
C54 C -0.3844(8) -0.1789(6) 0.3780(10)
C55 C -0.3429(8) -0.1115(6) 0.3951(10)
C56 C -0.3640(8) -0.0614(6) 0.4621(10)
H48 H -0.443 -0.040 0.564
H49 H -0.516 -0.159 0.534
H50 H -0.479 -0.248 0.415
H51 H -0.368 -0.218 0.326
H52 H -0.295 -0.098 0.356
C57 C -0.0312(9) 0.1363(7) 0.8416(13)
H53 H 0.025 0.134 0.830
C58 C -0.0723(8) 0.0637(6) 0.8446(12)
H54 H -0.131 0.060 0.853
H55 H -0.038 0.055 0.922
C59 C -0.0801(10) 0.0093(7) 0.7369(14)
H56 H -0.111 0.019 0.658
H57 H -0.022 0.009 0.732
C60 C -0.2040(7) -0.0884(5) 0.6691(9)
C61 C -0.2505(7) -0.1497(5) 0.6758(9)
C62 C -0.2194(7) -0.1814(5) 0.7570(9)
C63 C -0.1418(7) -0.1519(5) 0.8314(9)
C64 C -0.0953(7) -0.0905(5) 0.8247(9)
C65 C -0.1264(7) -0.0588(5) 0.7436(9)
H58 H -0.228 -0.064 0.606
H59 H -0.311 -0.173 0.618
H60 H -0.255 -0.229 0.762
H61 H -0.118 -0.176 0.894
H62 H -0.035 -0.068 0.882
C66 C -0.1100(8) 0.2270(7) 1.2061(13)
H63 H -0.077 0.254 1.298
C67 C -0.1458(9) 0.1550(7) 1.2141(13)
H64 H -0.177 0.123 1.125
H65 H -0.187 0.155 1.267
C68 C -0.0825(9) 0.1284(7) 1.2708(13)
H66 H -0.057 0.157 1.363
H67 H -0.037 0.136 1.225
C69 C -0.1062(7) 0.0369(5) 1.3741(7)
C70 C -0.1289(7) -0.0309(5) 1.3704(7)
C71 C -0.1542(7) -0.0796(5) 1.2609(7)
C72 C -0.1567(7) -0.0605(5) 1.1553(7)
C73 C -0.1340(7) 0.0073(5) 1.1591(7)
C74 C -0.1087(7) 0.0560(5) 1.2685(7)
H68 H -0.087 0.075 1.459
H69 H -0.127 -0.046 1.452
H70 H -0.172 -0.132 1.258
H71 H -0.176 -0.098 1.071
H72 H -0.136 0.022 1.077
C26A C 0.1499(10) 0.6718(8) 0.7913(14)
O10A O 0.0794(6) 0.6343(5) 0.6988(9)
C25A C 0.0125(9) 0.6149(8) 0.7392(14)
O9A O -0.0314(6) 0.6590(5) 0.7360(8)
C18A C -0.0136(9) 0.7104(7) 0.8419(14)
C17A C 0.0531(8) 0.7682(7) 0.8734(12)
C16A C 0.0643(8) 0.8162(7) 0.9742(12)
C15A C 0.0153(8) 0.8114(7) 1.0476(12)
C14A C -0.0500(9) 0.7530(7) 1.0105(13)
O6A O -0.1072(6) 0.7481(5) 1.0745(9)
C13A C -0.0895(9) 0.7265(7) 1.1792(13)
O5A O -0.0489(6) 0.7793(5) 1.2835(9)
C6A C 0.0351(9) 0.7998(7) 1.3170(13)
C5A C 0.0757(8) 0.8441(6) 1.2624(12)
C4A C 0.1576(9) 0.8653(7) 1.3033(13)
C3A C 0.1981(9) 0.8428(7) 1.3917(13)
C2A C 0.1532(9) 0.7980(7) 1.4416(13)
O2A O 0.1935(6) 0.7766(5) 1.5345(9)
C1A C 0.2239(10) 0.7255(8) 1.5047(15)
O1A O 0.3031(6) 0.7485(5) 1.5049(9)
C37A C 0.3168(9) 0.7544(7) 1.3923(14)
C36A C 0.3120(8) 0.8115(7) 1.3590(13)
C35A C 0.3281(8) 0.8170(7) 1.2514(12)
C34A C 0.3521(8) 0.7701(7) 1.1836(13)
C33A C 0.3527(9) 0.7113(8) 1.2217(15)
O12A O 0.3800(6) 0.6636(5) 1.1581(9)
C32A C 0.3238(10) 0.6161(8) 1.0501(14)
O11A O 0.3271(7) 0.6391(5) 0.9490(10)
C30A C 0.2745(10) 0.6721(8) 0.9162(14)
C29A C 0.2940(9) 0.7409(7) 0.9638(13)
C28A C 0.2407(9) 0.7740(7) 0.9223(13)
C27A C 0.1694(8) 0.7408(7) 0.8342(12)
C66A C 0.1100(8) 0.7730(7) 0.7939(13)
H63A H 0.077 0.746 0.702
C67A C 0.1458(9) 0.8450(7) 0.7859(13)
H64A H 0.177 0.877 0.875
H65A H 0.187 0.845 0.733
C68A C 0.0825(9) 0.8716(7) 0.7292(13)
H66A H 0.057 0.843 0.637
H67A H 0.037 0.864 0.775
C74A C 0.1087(7) 0.9440(5) 0.7315(7)
C69A C 0.1062(7) 0.9631(5) 0.6259(7)
C70A C 0.1289(7) 1.0309(5) 0.6296(7)
C71A C 0.1542(7) 1.0796(5) 0.7391(7)
C72A C 0.1567(7) 1.0605(5) 0.8447(7)
C73A C 0.1340(7) 0.9927(5) 0.8409(7)
H72A H 0.136 0.978 0.923
H71A H 0.176 1.098 0.929
H70A H 0.172 1.132 0.742
H69A H 0.127 1.046 0.548
H68A H 0.087 0.925 0.541
H29A H 0.256 0.827 0.960
C39A C 0.3701(9) 0.7765(7) 1.0674(13)
H33A H 0.414 0.752 1.056
C40A C 0.4109(8) 0.8493(7) 1.0671(13)
H34A H 0.418 0.850 0.980
H35A H 0.375 0.880 1.089
C41A C 0.4932(9) 0.8773(7) 1.1617(14)
H36A H 0.485 0.874 1.248
H37A H 0.529 0.847 1.138
C47A C 0.5369(8) 0.9482(6) 1.1722(11)
C42A C 0.6090(8) 0.9632(6) 1.1445(11)
C43A C 0.6521(8) 1.0297(6) 1.1583(11)
C44A C 0.6231(8) 1.0812(6) 1.1997(11)
C45A C 0.5510(8) 1.0662(6) 1.2273(11)
C46A C 0.5079(8) 0.9997(6) 1.2136(11)
H42A H 0.452 0.988 1.235
H41A H 0.529 1.106 1.259
H40A H 0.656 1.133 1.210
H39A H 0.708 1.041 1.137
H38A H 0.632 0.923 1.112
H30A H 0.338 0.570 1.038
H31A H 0.264 0.607 1.060
C31A C -0.2001(9) 0.3610(7) 1.1719(13)
O4A O -0.1816(6) 0.4313(5) 1.2132(9)
C12A C -0.1965(11) 0.4520(9) 1.3313(16)
C11A C -0.1714(11) 0.5227(9) 1.3699(18)
C10A C -0.0805(11) 0.5556(9) 1.3896(17)
C9A C -0.0641(10) 0.6300(8) 1.4222(15)
C8A C 0.0172(9) 0.6670(7) 1.4218(15)
O3A O 0.0283(6) 0.7372(5) 1.4600(8)
C7A C 0.0729(9) 0.7776(7) 1.4020(13)
H4A H 0.061 0.654 1.481
H5A H 0.023 0.654 1.332
H6A H -0.107 0.642 1.359(2)
H7A H -0.070 0.646 1.511(2)
H8A H -0.046 0.542 1.460(2)
H9A H -0.066 0.540 1.308
H10A H -0.184 0.537 1.454(2)
H11A H -0.204 0.541 1.304(2)
H12A H -0.259 0.432 1.322(2)
H13A H -0.164 0.433 1.395(2)
C38A C -0.3368(9) 0.2940(7) 0.6707(14)
O8A O -0.3476(6) 0.3454(5) 0.6248(9)
C24A C -0.2926(13) 0.4102(10) 0.6839(19)
C23A C -0.2925(16) 0.4567(13) 0.6215(24)
C22A C -0.2266(13) 0.5308(10) 0.6925(20)
C21A C -0.2584(11) 0.5761(8) 0.7614(17)
C20A C -0.1971(10) 0.6448(8) 0.8060(16)
O7A O -0.1259(6) 0.6440(5) 0.8827(9)
C19A C -0.0641(9) 0.7040(7) 0.9100(13)
H17A H -0.184 0.661 0.730(2)
H18A H -0.221 0.679 0.854(2)
H19A H -0.269 0.559 0.837(2)
H20A H -0.313 0.578 0.707(2)
H21A H -0.176 0.525 0.752(2)
H22A H -0.208 0.553 0.626(2)
H23A H -0.351 0.462 0.599(2)
H24A H -0.278 0.439 0.540(2)
H25A H -0.307 0.429 0.765(2)
H26A H -0.234 0.405 0.706(2)
H32A H 0.322 0.859 1.219
C48A C 0.2877(9) 0.8628(7) 1.4337(14)
H43A H 0.307 0.863 1.526
C49A C 0.3293(9) 0.9366(6) 1.4327(13)
H44A H 0.392 0.945 1.452
H45A H 0.307 0.942 1.344
C50A C 0.3167(10) 0.9897(7) 1.5210(14)
H46A H 0.330 0.979 1.607
H47A H 0.255 0.986 1.492
C56A C 0.3640(8) 1.0614(6) 1.5379(10)
C51A C 0.4264(8) 1.0786(6) 1.4880(10)
C52A C 0.4679(8) 1.1460(6) 1.5051(10)
C53A C 0.4468(8) 1.1961(6) 1.5721(10)
C54A C 0.3844(8) 1.1789(6) 1.6220(10)
C55A C 0.3429(8) 1.1115(6) 1.6049(10)
H52A H 0.295 1.098 1.644
H51A H 0.368 1.218 1.674
H50A H 0.479 1.248 1.585
H49A H 0.516 1.159 1.466
H48A H 0.443 1.040 1.436
H1A H 0.189 0.693 1.417
H2A H 0.221 0.697 1.569
H3A H 0.191 0.901 1.266
C57A C 0.0312(9) 0.8637(7) 1.1584(13)
H53A H -0.025 0.866 1.170
C58A C 0.0723(8) 0.9363(6) 1.1554(12)
H54A H 0.131 0.940 1.147
H55A H 0.038 0.945 1.078
C59A C 0.0801(10) 0.9907(7) 1.2631(14)
H56A H 0.111 0.981 1.342
H57A H 0.022 0.991 1.268
C65A C 0.1264(7) 1.0588(5) 1.2564(9)
C60A C 0.2040(7) 1.0884(5) 1.3309(9)
C61A C 0.2505(7) 1.1497(5) 1.3242(9)
C62A C 0.2194(7) 1.1814(5) 1.2430(9)
C63A C 0.1418(7) 1.1519(5) 1.1686(9)
C64A C 0.0953(7) 1.0905(5) 1.1753(9)
H62A H 0.035 1.068 1.118
H61A H 0.118 1.176 1.106
H60A H 0.255 1.229 1.238
H59A H 0.311 1.173 1.382
H58A H 0.228 1.064 1.394
H14A H -0.145 0.698 1.191
H15A H -0.053 0.694 1.167
H16A H 0.115 0.861 0.999
H27A H -0.025 0.566 0.683
H28A H 0.032 0.613 0.830
C75 C -0.3392(14) -0.0707(10) 0.8640(20)
H73 H -0.290 -0.084 0.909
H74 H -0.365 -0.104 0.775
H75 H -0.383 -0.075 0.913
C76 C -0.2976(10) -0.0009(9) 0.8798(15)
N1 N -0.2688(9) 0.0519(8) 0.8907(13)
C77 C -0.0972(19) 0.4131(15) 0.8137(28)
H76 H -0.052 0.459 0.870
H77 H -0.154 0.422 0.791
H78 H -0.081 0.397 0.733
C78 C -0.1020(15) 0.3638(14) 0.8779(22)
N2 N -0.1320(13) 0.3054(11) 0.8877(19)
O13 O 0.4518(13) 0.3138(10) 0.9372(19)
O14 O 0.5267(20) 0.6101(16) 0.3141(31)
O15 O 0.3471(36) 0.3673(32) 0.5115(60)
O16 O 0.5851(26) 0.5063(20) 0.1630(41)
O17 O 0.5906(36) 0.5321(31) 0.3684(57)
C79? C 0.1334(19) 0.2181(14) 0.4882(27)
C80? C 0.2124(28) 0.2529(19) 0.6067(42)
C81? C 0.2785(55) 0.2652(41) 0.7099(83)
C82? C 0.2447(25) 0.4329(19) 0.9255(35)
C83? C 0.1613(28) 0.4542(19) 0.9503(37)
C84? C 0.0826(31) 0.4728(23) 0.9622(45)
C85? C 0.6194(37) 0.6550(30) -0.0692(61)
C86? C 0.6834(31) 0.7384(28) 0.0241(47)
C87? C 0.6585(37) 0.6503(30) 0.0633(60)
C88? C 0.6613(23) 0.7825(20) 0.0310(34)
C89? C 0.5988(23) 0.2822(20) 0.2521(32)
C90? C 0.5120(31) 0.2344(22) 0.2236(39)
C91? C 0.4607(22) 0.2623(18) 0.3170(33)
C92? C 0.5856(37) 0.3251(32) 0.2974(53)
C93? C 0.5527(26) 0.3807(22) 0.3309(38)
C94? C 0.4148(50) 0.3327(39) 0.3758(71)
loop_
_geom_bond_atom_site_label_1
_geom_bond_atom_site_label_2
_geom_bond_site_symmetry_1
_geom_bond_site_symmetry_2
O1 C1 1_555 1_555
C1 H1 1_555 1_555
H2 C1 1_555 1_555
O2 C1 1_555 1_555
C2 O2 1_555 1_555
C3 C2 1_555 1_555
C4 C3 1_555 1_555
H3 C4 1_555 1_555
C5 C4 1_555 1_555
C6 C5 1_555 1_555
C7 C2 1_555 1_555
O3 C7 1_555 1_555
C8 O3 1_555 1_555
H4 C8 1_555 1_555
H5 C8 1_555 1_555
C9 C8 1_555 1_555
H6 C9 1_555 1_555
H7 C9 1_555 1_555
C10 C9 1_555 1_555
H8 C10 1_555 1_555
H9 C10 1_555 1_555
C11 C10 1_555 1_555
H10 C11 1_555 1_555
H11 C11 1_555 1_555
C12 C11 1_555 1_555
H12 C12 1_555 1_555
H13 C12 1_555 1_555
O4 C12 1_555 1_555
O5 C6 1_555 1_555
C13 O5 1_555 1_555
H14 C13 1_555 1_555
H15 C13 1_555 1_555
O6 C13 1_555 1_555
C14 O6 1_555 1_555
C15 C14 1_555 1_555
C16 C15 1_555 1_555
H16 C16 1_555 1_555
C17 C16 1_555 1_555
C18 C17 1_555 1_555
C19 C14 1_555 1_555
O7 C19 1_555 1_555
C20 O7 1_555 1_555
H17 C20 1_555 1_555
H18 C20 1_555 1_555
C21 C20 1_555 1_555
H19 C21 1_555 1_555
H20 C21 1_555 1_555
C22 C21 1_555 1_555
H21 C22 1_555 1_555
H22 C22 1_555 1_555
C23 C22 1_555 1_555
H23 C23 1_555 1_555
H24 C23 1_555 1_555
C24 C23 1_555 1_555
H25 C24 1_555 1_555
H26 C24 1_555 1_555
O8 C24 1_555 1_555
O9 C18 1_555 1_555
C25 O9 1_555 1_555
H27 C25 1_555 1_555
H28 C25 1_555 1_555
O10 C25 1_555 1_555
C26 O10 1_555 1_555
C27 C26 1_555 1_555
C28 C27 1_555 1_555
H29 C28 1_555 1_555
C29 C28 1_555 1_555
C30 C29 1_555 1_555
C31 O4 1_555 1_555
O11 C30 1_555 1_555
C32 O11 1_555 1_555
H30 C32 1_555 1_555
H31 C32 1_555 1_555
O12 C32 1_555 1_555
C33 O12 1_555 1_555
C34 C33 1_555 1_555
C35 C34 1_555 1_555
H32 C35 1_555 1_555
C36 C35 1_555 1_555
C37 O1 1_555 1_555
C38 O8 1_555 1_555
C39 C29 1_555 1_555
H33 C39 1_555 1_555
C40 C39 1_555 1_555
H34 C40 1_555 1_555
H35 C40 1_555 1_555
C41 C40 1_555 1_555
H36 C41 1_555 1_555
H37 C41 1_555 1_555
C42 C43 1_555 1_555
C43 C44 1_555 1_555
C44 C45 1_555 1_555
C45 C46 1_555 1_555
C46 C47 1_555 1_555
C47 C41 1_555 1_555
H38 C42 1_555 1_555
H39 C43 1_555 1_555
H40 C44 1_555 1_555
H41 C45 1_555 1_555
H42 C46 1_555 1_555
C48 C3 1_555 1_555
H43 C48 1_555 1_555
C49 C48 1_555 1_555
H44 C49 1_555 1_555
H45 C49 1_555 1_555
C50 C49 1_555 1_555
H46 C50 1_555 1_555
H47 C50 1_555 1_555
C51 C52 1_555 1_555
C52 C53 1_555 1_555
C53 C54 1_555 1_555
C54 C55 1_555 1_555
C55 C56 1_555 1_555
C56 C50 1_555 1_555
H48 C51 1_555 1_555
H49 C52 1_555 1_555
H50 C53 1_555 1_555
H51 C54 1_555 1_555
H52 C55 1_555 1_555
C57 C5 1_555 1_555
H53 C57 1_555 1_555
C58 C57 1_555 1_555
H54 C58 1_555 1_555
H55 C58 1_555 1_555
C59 C58 1_555 1_555
H56 C59 1_555 1_555
H57 C59 1_555 1_555
C60 C61 1_555 1_555
C61 C62 1_555 1_555
C62 C63 1_555 1_555
C63 C64 1_555 1_555
C64 C65 1_555 1_555
C65 C59 1_555 1_555
H58 C60 1_555 1_555
H59 C61 1_555 1_555
H60 C62 1_555 1_555
H61 C63 1_555 1_555
H62 C64 1_555 1_555
C66 C17 1_555 1_555
H63 C66 1_555 1_555
C67 C66 1_555 1_555
H64 C67 1_555 1_555
H65 C67 1_555 1_555
C68 C67 1_555 1_555
H66 C68 1_555 1_555
H67 C68 1_555 1_555
C69 C70 1_555 1_555
C70 C71 1_555 1_555
C71 C72 1_555 1_555
C72 C73 1_555 1_555
C73 C74 1_555 1_555
C74 C68 1_555 1_555
H68 C69 1_555 1_555
H69 C70 1_555 1_555
H70 C71 1_555 1_555
H71 C72 1_555 1_555
H72 C73 1_555 1_555
C75 H73 1_555 1_555
H74 C75 1_555 1_555
H75 C75 1_555 1_555
C76 C75 1_555 1_555
N1 C76 1_555 1_555
C77 H76 1_555 1_555
H77 C77 1_555 1_555
H78 C77 1_555 1_555
C78 C77 1_555 1_555
N2 C78 1_555 1_555
C26A C31 1_555 1_555
O10A C26A 1_555 1_555
C25A O10A 1_555 1_555
O9A C25A 1_555 1_555
C18A O9A 1_555 1_555
C17A C18A 1_555 1_555
C16A C17A 1_555 1_555
C15A C16A 1_555 1_555
C14A C15A 1_555 1_555
O6A C14A 1_555 1_555
C13A O6A 1_555 1_555
O5A C13A 1_555 1_555
C6A O5A 1_555 1_555
C5A C6A 1_555 1_555
C4A C5A 1_555 1_555
C3A C4A 1_555 1_555
C2A C3A 1_555 1_555
O2A C2A 1_555 1_555
C1A O2A 1_555 1_555
O1A C1A 1_555 1_555
C37A C38 1_555 1_555
C36A C37A 1_555 1_555
C35A C36A 1_555 1_555
C34A C35A 1_555 1_555
C33A C38 1_555 1_555
O12A C33A 1_555 1_555
C32A O12A 1_555 1_555
O11A C32A 1_555 1_555
C30A C31 1_555 1_555
C29A C30A 1_555 1_555
C28A C29A 1_555 1_555
C27A C26A 1_555 1_555
C66A C17A 1_555 1_555
H63A C66A 1_555 1_555
C67A C66A 1_555 1_555
H64A C67A 1_555 1_555
H65A C67A 1_555 1_555
C68A C67A 1_555 1_555
H66A C68A 1_555 1_555
H67A C68A 1_555 1_555
C74A C68A 1_555 1_555
C69A C74A 1_555 1_555
C70A C69A 1_555 1_555
C71A C70A 1_555 1_555
C72A C71A 1_555 1_555
C73A C74A 1_555 1_555
H72A C73A 1_555 1_555
H71A C72A 1_555 1_555
H70A C71A 1_555 1_555
H69A C70A 1_555 1_555
H68A C69A 1_555 1_555
H29A C28A 1_555 1_555
C39A C34A 1_555 1_555
H33A C39A 1_555 1_555
C40A C39A 1_555 1_555
H34A C40A 1_555 1_555
H35A C40A 1_555 1_555
C41A C40A 1_555 1_555
H36A C41A 1_555 1_555
H37A C41A 1_555 1_555
C47A C41A 1_555 1_555
C42A C47A 1_555 1_555
C43A C42A 1_555 1_555
C44A C43A 1_555 1_555
C45A C44A 1_555 1_555
C46A C47A 1_555 1_555
H42A C46A 1_555 1_555
H41A C45A 1_555 1_555
H40A C44A 1_555 1_555
H39A C43A 1_555 1_555
H38A C42A 1_555 1_555
H30A C32A 1_555 1_555
H31A C32A 1_555 1_555
C31A C26 1_555 1_555
O4A C31A 1_555 1_555
C12A O4A 1_555 1_555
C11A C12A 1_555 1_555
C10A C11A 1_555 1_555
C9A C10A 1_555 1_555
C8A C9A 1_555 1_555
O3A C8A 1_555 1_555
C7A C6A 1_555 1_555
H4A C8A 1_555 1_555
H5A C8A 1_555 1_555
H6A C9A 1_555 1_555
H7A C9A 1_555 1_555
H8A C10A 1_555 1_555
H9A C10A 1_555 1_555
H10A C11A 1_555 1_555
H11A C11A 1_555 1_555
H12A C12A 1_555 1_555
H13A C12A 1_555 1_555
C38A C33 1_555 1_555
O8A C38A 1_555 1_555
C24A O8A 1_555 1_555
C23A C24A 1_555 1_555
C22A C23A 1_555 1_555
C21A C22A 1_555 1_555
C20A C21A 1_555 1_555
O7A C20A 1_555 1_555
C19A C18A 1_555 1_555
H17A C20A 1_555 1_555
H18A C20A 1_555 1_555
H19A C21A 1_555 1_555
H20A C21A 1_555 1_555
H21A C22A 1_555 1_555
H22A C22A 1_555 1_555
H23A C23A 1_555 1_555
H24A C23A 1_555 1_555
H25A C24A 1_555 1_555
H26A C24A 1_555 1_555
H32A C35A 1_555 1_555
C48A C3A 1_555 1_555
H43A C48A 1_555 1_555
C49A C48A 1_555 1_555
H44A C49A 1_555 1_555
H45A C49A 1_555 1_555
C50A C49A 1_555 1_555
H46A C50A 1_555 1_555
H47A C50A 1_555 1_555
C56A C50A 1_555 1_555
C51A C56A 1_555 1_555
C52A C51A 1_555 1_555
C53A C52A 1_555 1_555
C54A C53A 1_555 1_555
C55A C56A 1_555 1_555
H52A C55A 1_555 1_555
H51A C54A 1_555 1_555
H50A C53A 1_555 1_555
H49A C52A 1_555 1_555
H48A C51A 1_555 1_555
H1A C1A 1_555 1_555
H2A C1A 1_555 1_555
H3A C4A 1_555 1_555
C57A C15A 1_555 1_555
H53A C57A 1_555 1_555
C58A C57A 1_555 1_555
H54A C58A 1_555 1_555
H55A C58A 1_555 1_555
C59A C58A 1_555 1_555
H56A C59A 1_555 1_555
H57A C59A 1_555 1_555
C65A C59A 1_555 1_555
C60A C65A 1_555 1_555
C61A C60A 1_555 1_555
C62A C61A 1_555 1_555
C63A C62A 1_555 1_555
C64A C65A 1_555 1_555
H62A C64A 1_555 1_555
H61A C63A 1_555 1_555
H60A C62A 1_555 1_555
H59A C61A 1_555 1_555
H58A C60A 1_555 1_555
H14A C13A 1_555 1_555
H15A C13A 1_555 1_555
H16A C16A 1_555 1_555
H27A C25A 1_555 1_555
H28A C25A 1_555 1_555
C6 C7 1_555 1_555
C15 C57 1_555 1_555
C18 C19 1_555 1_555
C27 C66 1_555 1_555
C30 C31A 1_555 1_555
C34 C39 1_555 1_555
C36 C37 1_555 1_555
C36 C48 1_555 1_555
C37 C38A 1_555 1_555
C42 C47 1_555 1_555
C51 C56 1_555 1_555
C60 C65 1_555 1_555
C69 C74 1_555 1_555
C14A C19A 1_555 1_555
C5A C57A 1_555 1_555
C2A C7A 1_555 1_555
O1A C37A 1_555 1_555
C36A C48A 1_555 1_555
C34A C33A 1_555 1_555
O11A C30A 1_555 1_555
C29A C39A 1_555 1_555
C28A C27A 1_555 1_555
C27A C66A 1_555 1_555
C72A C73A 1_555 1_555
C45A C46A 1_555 1_555
O3A C7A 1_555 1_555
O7A C19A 1_555 1_555
C54A C55A 1_555 1_555
C63A C64A 1_555 1_555

#END
