
#######################################################################
#
#                 Cambridge Crystallographic Data Centre
#                                CCDC 
#
#######################################################################
#
# If this CIF has been generated from an entry in the Cambridge 
# Structural Database, then it will include bibliographic, chemical, 
# crystal, experimental, refinement or atomic coordinate data resulting 
# from the CCDC's data processing and validation procedures.
#
#######################################################################

data_ZUFZAD
_chemical_formula_moiety         'C16 H18 F2 O4'
_chemical_name_systematic        
'ethyl difluoro(1-hydroxy-3-oxo-5-phenylcyclohexyl)acetate'
_symmetry_cell_setting           monoclinic
_symmetry_space_group_name_H-M   'P 21/n'
_symmetry_Int_Tables_number      14
_space_group_name_Hall           '-P 2yn'
loop_
_symmetry_equiv_pos_site_id
_symmetry_equiv_pos_as_xyz
1 x,y,z
2 1/2-x,1/2+y,1/2-z
3 -x,-y,-z
4 1/2+x,1/2-y,1/2+z
_cell_length_a                   15.684(2)
_cell_length_b                   6.3142(9)
_cell_length_c                   16.179(2)
_cell_angle_alpha                90
_cell_angle_beta                 93.860(3)
_cell_angle_gamma                90
_cell_volume                     1598.6
_exptl_crystal_colour            colorless
_exptl_crystal_description       prismatic
_cell_formula_units_Z            4
loop_
_atom_site_label
_atom_site_type_symbol
_atom_site_fract_x
_atom_site_fract_y
_atom_site_fract_z
O1 O 0.55600(10) 0.7138(2) 0.50348(9)
O2 O 0.50450(8) 1.1034(2) 0.64634(8)
O3 O 0.37844(14) 1.3604(4) 0.74125(14)
O4 O 0.36589(15) 1.0968(4) 0.82870(13)
F1 F 0.32567(8) 1.0908(2) 0.62242(8)
F2 F 0.31988(8) 0.8405(2) 0.71254(10)
C1 C 0.53081(14) 0.6979(3) 0.57226(13)
C2 C 0.58477(13) 0.6011(3) 0.64196(11)
H1 H 0.6416 0.5750 0.6239
H2 H 0.5604 0.4659 0.6563
C3 C 0.59167(11) 0.7428(3) 0.71893(11)
H3 H 0.6249 0.8682 0.7056
C4 C 0.50334(11) 0.8188(3) 0.74108(11)
H4 H 0.4704 0.6988 0.7585
H5 H 0.5098 0.9175 0.7870
C5 C 0.45549(11) 0.9264(3) 0.66755(11)
C6 C 0.44477(13) 0.7733(3) 0.59409(12)
H6 H 0.4100 0.6535 0.6085
H7 H 0.4161 0.8445 0.5469
C7 C 0.36799(12) 1.0058(4) 0.69008(13)
C8 C 0.37087(14) 1.1800(5) 0.75649(17)
C9 C 0.63980(11) 0.6303(3) 0.79041(11)
C10 C 0.61342(14) 0.4386(4) 0.81904(14)
H8 H 0.5640 0.3771 0.7947
C11 C 0.65818(17) 0.3349(4) 0.88297(15)
H9 H 0.6392 0.2044 0.9011
C12 C 0.73104(16) 0.4246(5) 0.91996(14)
H10 H 0.7607 0.3580 0.9644
C13 C 0.75883(15) 0.6110(5) 0.89076(15)
H11 H 0.8090 0.6706 0.9142
C14 C 0.71390(13) 0.7131(4) 0.82703(12)
H12 H 0.7341 0.8416 0.8082
C15 C 0.3813(6) 1.2727(17) 0.8961(5)
H13 H 0.4375 1.3366 0.8951
H14 H 0.3376 1.3816 0.8921
C16 C 0.3735(14) 1.127(3) 0.9712(8)
H15 H 0.3153 1.0812 0.9731
H16 H 0.3903 1.2036 1.0210
H17 H 0.4100 1.0065 0.9665
H18 H 0.4838(15) 1.156(3) 0.6011(11)
C17? C 0.4227(7) 1.206(3) 0.9590(7)
H19? H 0.4568 1.0823 0.9518
H20? H 0.4097 1.2178 1.0160
H21? H 0.4538 1.3296 0.9436
C18? C 0.3412(7) 1.190(3) 0.9053(10)
H22? H 0.3002 1.1008 0.9310
H23? H 0.3161 1.3289 0.8953
loop_
_geom_bond_atom_site_label_1
_geom_bond_atom_site_label_2
_geom_bond_site_symmetry_1
_geom_bond_site_symmetry_2
O1 C1 1_555 1_555
O2 C5 1_555 1_555
O3 C8 1_555 1_555
O4 C8 1_555 1_555
F1 C7 1_555 1_555
F2 C7 1_555 1_555
C1 C2 1_555 1_555
C2 H1 1_555 1_555
H2 C2 1_555 1_555
C3 C2 1_555 1_555
H3 C3 1_555 1_555
C4 C3 1_555 1_555
H4 C4 1_555 1_555
H5 C4 1_555 1_555
C5 C4 1_555 1_555
C6 C1 1_555 1_555
H6 C6 1_555 1_555
H7 C6 1_555 1_555
C7 C5 1_555 1_555
C8 C7 1_555 1_555
C9 C3 1_555 1_555
C10 C9 1_555 1_555
H8 C10 1_555 1_555
C11 C10 1_555 1_555
H9 C11 1_555 1_555
C12 C11 1_555 1_555
H10 C12 1_555 1_555
C13 C12 1_555 1_555
H11 C13 1_555 1_555
C14 C9 1_555 1_555
H12 C14 1_555 1_555
C15 O4 1_555 1_555
H13 C15 1_555 1_555
H14 C15 1_555 1_555
C16 C15 1_555 1_555
H15 C16 1_555 1_555
H16 C16 1_555 1_555
H17 C16 1_555 1_555
H18 O2 1_555 1_555
C5 C6 1_555 1_555
C13 C14 1_555 1_555

#END
