
#######################################################################
#
#                 Cambridge Crystallographic Data Centre
#                                CCDC 
#
#######################################################################
#
# If this CIF has been generated from an entry in the Cambridge 
# Structural Database, then it will include bibliographic, chemical, 
# crystal, experimental, refinement or atomic coordinate data resulting 
# from the CCDC's data processing and validation procedures.
#
#######################################################################

data_ZUGDIO10
_chemical_formula_moiety         
'C32 H40 Ba1 Cl2 N4 O7 2+,2(Br1 1-),2(C1 H1 Cl3)'
_chemical_name_systematic        
'Aqua-(7,16-bis((5-chloro-8-hydroxy-2-quinolinyl)methyl)-1,4,10,13-tetra-oxa-7,16-diazacyclo-octadecane)-barium dibromide chloroform unknown solvate'
_symmetry_cell_setting           triclinic
_symmetry_space_group_name_H-M   'P -1'
_symmetry_Int_Tables_number      2
_space_group_name_Hall           '-P 1'
loop_
_symmetry_equiv_pos_site_id
_symmetry_equiv_pos_as_xyz
1 x,y,z
2 -x,-y,-z
_cell_length_a                   10.655(4)
_cell_length_b                   11.907(5)
_cell_length_c                   19.789(8)
_cell_angle_alpha                84.74(3)
_cell_angle_beta                 80.70(3)
_cell_angle_gamma                81.13(3)
_cell_volume                     2442.24
_exptl_crystal_colour            colorless
_cell_formula_units_Z            2
loop_
_atom_site_label
_atom_site_type_symbol
_atom_site_fract_x
_atom_site_fract_y
_atom_site_fract_z
Ba1 Ba 0.1273(1) 0.3280(1) 0.2757(1)
C1 C -0.0065(12) 0.3511(11) 0.0416(6)
C2 C 0.0816(14) 0.2825(12) 0.0031(7)
C3 C 0.2046(12) 0.2446(11) 0.0238(6)
C4 C 0.3052(13) 0.1751(11) -0.0146(6)
Cl1 Cl 0.2819(4) 0.1218(4) -0.0894(2)
C5 C 0.4205(12) 0.1465(11) 0.0084(7)
C6 C 0.4426(12) 0.1836(11) 0.0711(6)
C7 C 0.3456(11) 0.2504(10) 0.1091(6)
O1 O 0.3615(7) 0.2902(7) 0.1687(4)
C8 C 0.2244(11) 0.2836(10) 0.0861(6)
N1 N 0.1316(9) 0.3516(8) 0.1259(5)
C9 C 0.0215(12) 0.3851(10) 0.1035(6)
C10 C -0.0818(13) 0.4586(11) 0.1462(7)
N2 N -0.0374(9) 0.5086(8) 0.2021(5)
C11 C -0.1469(13) 0.5535(11) 0.2539(7)
C12 C -0.2235(12) 0.4635(11) 0.2915(7)
O2 O -0.1362(7) 0.3830(7) 0.3249(4)
C13 C -0.1969(12) 0.3027(12) 0.3709(7)
C14 C -0.1128(11) 0.2542(12) 0.4227(7)
O3 O 0.0061(8) 0.1989(7) 0.3876(4)
C15 C 0.0879(12) 0.1446(12) 0.4350(6)
C16 C 0.2059(12) 0.0794(10) 0.3947(6)
N3 N 0.2913(9) 0.1534(8) 0.3502(5)
C17 C 0.3605(12) 0.2112(12) 0.3930(7)
C18 C 0.4369(12) 0.3011(12) 0.3555(7)
O4 O 0.3457(8) 0.3808(7) 0.3234(5)
C19 C 0.4041(12) 0.4763(11) 0.2881(7)
C20 C 0.3024(13) 0.5723(12) 0.2783(8)
O5 O 0.2181(8) 0.5397(7) 0.2353(4)
C21 C 0.1199(14) 0.6345(11) 0.2233(7)
C22 C 0.0382(13) 0.6016(11) 0.1741(7)
C23 C 0.3820(11) 0.0857(10) 0.3012(6)
C24 C 0.3176(11) 0.0399(10) 0.2468(6)
C25 C 0.3885(11) -0.0482(10) 0.2085(6)
C26 C 0.3393(12) -0.0887(10) 0.1597(6)
C27 C 0.2147(11) -0.0431(10) 0.1467(6)
C28 C 0.1514(13) -0.0768(11) 0.0976(7)
Cl2 Cl 0.2283(4) -0.1843(3) 0.0443(2)
C29 C 0.0289(13) -0.0276(11) 0.0898(7)
C30 C -0.0355(11) 0.0609(10) 0.1278(6)
C31 C 0.0223(11) 0.0988(9) 0.1771(6)
O6 O -0.0382(7) 0.1833(6) 0.2179(4)
C32 C 0.1508(11) 0.0480(9) 0.1861(6)
N4 N 0.2039(9) 0.0886(7) 0.2360(5)
O7 O 0.0799(8) 0.4623(8) 0.3890(5)
H1 H -0.0884 0.3778 0.0272
H2 H 0.0635 0.2582 -0.0388
H3 H 0.4882 0.0999 -0.0187
H4 H 0.5243 0.1621 0.0867
H5 H 0.4171 0.2616 0.1972
H6 H -0.1178 0.5197 0.1169
H7 H -0.1489 0.4147 0.1656
H8 H -0.1139 0.5912 0.2866
H9 H -0.2029 0.6097 0.2307
H10 H -0.2901 0.4981 0.3251
H11 H -0.2627 0.4282 0.2601
H12 H -0.2782 0.3385 0.3931
H13 H -0.2118 0.2417 0.3460
H14 H -0.0968 0.3153 0.4471
H15 H -0.1532 0.2009 0.4551
H16 H 0.1130 0.2008 0.4599
H17 H 0.0428 0.0938 0.4671
H18 H 0.2554 0.0334 0.4263
H19 H 0.1779 0.0290 0.3669
H20 H 0.4175 0.1542 0.4150
H21 H 0.2987 0.2469 0.4283
H22 H 0.4756 0.3379 0.3864
H23 H 0.5035 0.2666 0.3220
H24 H 0.4647 0.4973 0.3139
H25 H 0.4488 0.4553 0.2439
H26 H 0.2547 0.5902 0.3224
H27 H 0.3385 0.6385 0.2576
H28 H 0.0657 0.6511 0.2659
H29 H 0.1581 0.7010 0.2053
H30 H -0.0192 0.6672 0.1606
H31 H 0.0951 0.5771 0.1337
H32 H 0.4251 0.0218 0.3258
H33 H 0.4456 0.1310 0.2786
H34 H 0.4726 -0.0800 0.2182
H35 H 0.3879 -0.1486 0.1330
H36 H -0.0127 -0.0546 0.0562
H37 H -0.1208 0.0950 0.1213
H40 H 0.1310 0.4954 0.4227
H41 H -0.0047 0.5121 0.4107
Br1 Br 0.8007(1) 0.6044(1) 0.4590(1)
Br2 Br -0.3355(1) 0.2456(2) 0.1851(1)
C33 C 0.4872(14) 0.7095(11) 0.4317(7)
Cl3 Cl 0.3835(5) 0.6096(4) 0.4559(2)
Cl4 Cl 0.4289(5) 0.8346(4) 0.4744(2)
Cl5 Cl 0.5096(6) 0.7404(4) 0.3423(2)
H38 H 0.5686 0.6780 0.4454
C34 C 0.8443(22) 0.8707(16) 0.3554(9)
Cl6 Cl 0.7486(9) 0.9715(6) 0.4041(4)
Cl7 Cl 0.8162(9) 0.8837(6) 0.2701(3)
Cl8 Cl 1.0029(8) 0.8680(8) 0.3566(5)
H39 H 0.8203 0.7999 0.3768
O8? O 0.5780 0.6281 0.1430
C35? C 0.5616 0.5529 0.0883
C36? C 0.4321 0.5541 0.0875
C37? C 0.3821 0.5368 0.0361
N5? N 0.3337 0.5050 -0.0145
loop_
_geom_bond_atom_site_label_1
_geom_bond_atom_site_label_2
_geom_bond_site_symmetry_1
_geom_bond_site_symmetry_2
Ba1 O1 1_555 1_555
C1 C2 1_555 1_555
C2 C3 1_555 1_555
C3 C4 1_555 1_555
C4 Cl1 1_555 1_555
C5 C4 1_555 1_555
C6 C5 1_555 1_555
C7 C6 1_555 1_555
O1 C7 1_555 1_555
C8 C3 1_555 1_555
N1 Ba1 1_555 1_555
C9 C1 1_555 1_555
C10 C9 1_555 1_555
N2 Ba1 1_555 1_555
C11 N2 1_555 1_555
C12 C11 1_555 1_555
O2 Ba1 1_555 1_555
C13 O2 1_555 1_555
C14 C13 1_555 1_555
O3 Ba1 1_555 1_555
C15 O3 1_555 1_555
C16 C15 1_555 1_555
N3 Ba1 1_555 1_555
C17 N3 1_555 1_555
C18 C17 1_555 1_555
O4 Ba1 1_555 1_555
C19 O4 1_555 1_555
C20 C19 1_555 1_555
O5 Ba1 1_555 1_555
C21 O5 1_555 1_555
C22 N2 1_555 1_555
C23 N3 1_555 1_555
C24 C23 1_555 1_555
C25 C24 1_555 1_555
C26 C25 1_555 1_555
C27 C26 1_555 1_555
C28 C27 1_555 1_555
Cl2 C28 1_555 1_555
C29 C28 1_555 1_555
C30 C29 1_555 1_555
C31 C30 1_555 1_555
O6 Ba1 1_555 1_555
C32 C27 1_555 1_555
N4 Ba1 1_555 1_555
C33 Cl3 1_555 1_555
Cl4 C33 1_555 1_555
Cl5 C33 1_555 1_555
C34 Cl6 1_555 1_555
Cl7 C34 1_555 1_555
Cl8 C34 1_555 1_555
O7 Ba1 1_555 1_555
H1 C1 1_555 1_555
H2 C2 1_555 1_555
H3 C5 1_555 1_555
H4 C6 1_555 1_555
H5 O1 1_555 1_555
H6 C10 1_555 1_555
H7 C10 1_555 1_555
H8 C11 1_555 1_555
H9 C11 1_555 1_555
H10 C12 1_555 1_555
H11 C12 1_555 1_555
H12 C13 1_555 1_555
H13 C13 1_555 1_555
H14 C14 1_555 1_555
H15 C14 1_555 1_555
H16 C15 1_555 1_555
H17 C15 1_555 1_555
H18 C16 1_555 1_555
H19 C16 1_555 1_555
H20 C17 1_555 1_555
H21 C17 1_555 1_555
H22 C18 1_555 1_555
H23 C18 1_555 1_555
H24 C19 1_555 1_555
H25 C19 1_555 1_555
H26 C20 1_555 1_555
H27 C20 1_555 1_555
H28 C21 1_555 1_555
H29 C21 1_555 1_555
H30 C22 1_555 1_555
H31 C22 1_555 1_555
H32 C23 1_555 1_555
H33 C23 1_555 1_555
H34 C25 1_555 1_555
H35 C26 1_555 1_555
H36 C29 1_555 1_555
H37 C30 1_555 1_555
H38 C33 1_555 1_555
H39 C34 1_555 1_555
H40 O7 1_555 1_555
H41 O7 1_555 1_555
C7 C8 1_555 1_555
C8 N1 1_555 1_555
N1 C9 1_555 1_555
C10 N2 1_555 1_555
C12 O2 1_555 1_555
C14 O3 1_555 1_555
C16 N3 1_555 1_555
C18 O4 1_555 1_555
C20 O5 1_555 1_555
C21 C22 1_555 1_555
C24 N4 1_555 1_555
C31 O6 1_555 1_555
C31 C32 1_555 1_555
C32 N4 1_555 1_555

#END
