
#######################################################################
#
#                 Cambridge Crystallographic Data Centre
#                                CCDC 
#
#######################################################################
#
# If this CIF has been generated from an entry in the Cambridge 
# Structural Database, then it will include bibliographic, chemical, 
# crystal, experimental, refinement or atomic coordinate data resulting 
# from the CCDC's data processing and validation procedures.
#
#######################################################################

data_ZUJRED
_chemical_formula_moiety         'C27 H19 B1 F2 N2 S1'
_chemical_name_systematic        
1,1-difluoro-2,3,4-triphenyl-1,2-dihydro-[1,3,2]diazaborinino[6,1-b][1,3]benzothiazole
_symmetry_cell_setting           triclinic
_symmetry_space_group_name_H-M   'P -1'
_symmetry_Int_Tables_number      2
_space_group_name_Hall           '-P 1'
loop_
_symmetry_equiv_pos_site_id
_symmetry_equiv_pos_as_xyz
1 x,y,z
2 -x,-y,-z
_cell_length_a                   10.1096(5)
_cell_length_b                   12.4472(13)
_cell_length_c                   18.3814(9)
_cell_angle_alpha                95.587(6)
_cell_angle_beta                 95.919(4)
_cell_angle_gamma                96.900(6)
_cell_volume                     2269.9
_exptl_crystal_colour            yellow
_exptl_crystal_description       prism
_cell_formula_units_Z            4
loop_
_atom_site_label
_atom_site_type_symbol
_atom_site_fract_x
_atom_site_fract_y
_atom_site_fract_z
S1 S 0.69835(12) 0.26523(10) 0.18143(6)
F1 F 0.5704(3) -0.0931(2) 0.05743(13)
F2 F 0.7878(3) -0.0963(2) 0.09713(13)
N1 N 0.6925(3) 0.0672(3) 0.12495(15)
N2 N 0.7392(3) 0.0082(3) -0.00265(15)
B1 B 0.6966(5) -0.0325(4) 0.0691(3)
C1 C 0.6583(4) 0.1609(4) 0.2363(2)
C2 C 0.6264(4) 0.1692(4) 0.3079(2)
H1 H 0.6241 0.2368 0.3339
C3 C 0.5982(4) 0.0744(5) 0.3393(2)
H2 H 0.5772 0.0779 0.3875
C4 C 0.6006(4) -0.0247(4) 0.3009(2)
H3 H 0.5823 -0.0876 0.3235
C5 C 0.6298(4) -0.0330(4) 0.2290(2)
H4 H 0.6288 -0.1008 0.2026
C6 C 0.6606(4) 0.0622(4) 0.19717(19)
C7 C 0.7129(4) 0.1692(4) 0.1088(2)
C8 C 0.7432(3) 0.1981(3) 0.03929(18)
C9 C 0.7561(3) 0.1148(3) -0.01398(18)
C10 C 0.7484(4) 0.3136(3) 0.02563(19)
C11 C 0.8537(4) 0.3908(4) 0.0571(2)
H5 H 0.9233 0.3693 0.0872
C12 C 0.8584(5) 0.4983(4) 0.0452(2)
H6 H 0.9310 0.5482 0.0668
C13 C 0.7569(6) 0.5324(4) 0.0019(3)
H7 H 0.7592 0.6055 -0.0054
C14 C 0.6517(5) 0.4575(5) -0.0307(2)
H8 H 0.5834 0.4798 -0.0613
C15 C 0.6463(4) 0.3498(4) -0.0187(2)
H9 H 0.5734 0.3003 -0.0405
C16 C 0.7920(4) 0.1451(3) -0.08641(18)
C17 C 0.9151(4) 0.2038(4) -0.0911(2)
H10 H 0.9765 0.2226 -0.0492
C18 C 0.9470(4) 0.2344(4) -0.1577(2)
H11 H 1.0309 0.2722 -0.1610
C19 C 0.8555(5) 0.2095(4) -0.2190(2)
H12 H 0.8766 0.2323 -0.2636
C20 C 0.7342(5) 0.1518(4) -0.2151(2)
H13 H 0.6732 0.1344 -0.2573
C21 C 0.7007(4) 0.1186(4) -0.1491(2)
H14 H 0.6176 0.0789 -0.1467
C22 C 0.7654(4) -0.0748(3) -0.05755(19)
C23 C 0.8896(4) -0.0750(4) -0.0804(2)
H15 H 0.9584 -0.0201 -0.0610
C24 C 0.9137(5) -0.1561(4) -0.1324(2)
H16 H 0.9983 -0.1552 -0.1481
C25 C 0.8131(6) -0.2379(4) -0.1609(3)
H17 H 0.8291 -0.2922 -0.1961
C26 C 0.6899(6) -0.2389(4) -0.1373(3)
H18 H 0.6224 -0.2950 -0.1564
C27 C 0.6625(4) -0.1587(4) -0.0856(2)
H19 H 0.5778 -0.1604 -0.0698
S2 S 0.82654(11) 0.77331(10) 0.43479(6)
F3 F 0.5693(2) 0.4156(2) 0.40709(11)
F4 F 0.7834(2) 0.3850(2) 0.40051(11)
N3 N 0.7393(3) 0.5684(3) 0.41773(15)
N4 N 0.7235(3) 0.4489(3) 0.51861(14)
B2 B 0.7013(4) 0.4503(4) 0.4345(2)
C28 C 0.7775(4) 0.7084(4) 0.3455(2)
C29 C 0.7813(4) 0.7544(4) 0.2795(2)
H20 H 0.8157 0.8269 0.2785
C30 C 0.7319(5) 0.6877(5) 0.2156(2)
H21 H 0.7300 0.7167 0.1708
C31 C 0.6853(4) 0.5790(4) 0.2167(2)
H22 H 0.6541 0.5361 0.1725
C32 C 0.6841(4) 0.5329(4) 0.2820(2)
H23 H 0.6521 0.4598 0.2827
C33 C 0.7325(4) 0.5999(4) 0.3470(2)
C34 C 0.7878(3) 0.6505(3) 0.4711(2)
C35 C 0.8035(3) 0.6384(3) 0.54594(19)
C36 C 0.7729(3) 0.5361(3) 0.56773(18)
C37 C 0.8443(4) 0.7392(3) 0.5979(2)
C38 C 0.9751(4) 0.7899(4) 0.6094(2)
H24 H 1.0412 0.7589 0.5863
C39 C 1.0089(5) 0.8872(4) 0.6554(3)
H25 H 1.0973 0.9207 0.6628
C40 C 0.9135(5) 0.9334(4) 0.6896(3)
H26 H 0.9367 0.9985 0.7202
C41 C 0.7839(5) 0.8847(4) 0.6791(2)
H27 H 0.7188 0.9164 0.7027
C42 C 0.7489(4) 0.7879(4) 0.6334(2)
H28 H 0.6602 0.7553 0.6266
C43 C 0.7933(3) 0.5192(3) 0.64682(18)
C44 C 0.9230(4) 0.5296(3) 0.6825(2)
H29 H 0.9961 0.5497 0.6577
C45 C 0.9425(4) 0.5098(4) 0.7554(2)
H30 H 1.0290 0.5173 0.7796
C46 C 0.8360(5) 0.4795(4) 0.7919(2)
H31 H 0.8502 0.4657 0.8407
C47 C 0.7090(4) 0.4694(4) 0.7573(2)
H32 H 0.6366 0.4496 0.7827
C48 C 0.6872(4) 0.4882(3) 0.6849(2)
H33 H 0.6000 0.4799 0.6614
C49 C 0.7029(4) 0.3398(3) 0.53969(17)
C50 C 0.5745(4) 0.2861(4) 0.53531(19)
H34 H 0.5013 0.3220 0.5228
C51 C 0.5548(4) 0.1793(4) 0.5494(2)
H35 H 0.4680 0.1431 0.5463
C52 C 0.6613(5) 0.1260(4) 0.5679(2)
H36 H 0.6474 0.0538 0.5777
C53 C 0.7896(5) 0.1794(4) 0.5722(2)
H37 H 0.8625 0.1433 0.5850
C54 C 0.8101(4) 0.2856(4) 0.55761(19)
H38 H 0.8970 0.3211 0.5599
loop_
_geom_bond_atom_site_label_1
_geom_bond_atom_site_label_2
_geom_bond_site_symmetry_1
_geom_bond_site_symmetry_2
S1 C1 1_555 1_555
F1 B1 1_555 1_555
F2 B1 1_555 1_555
N1 B1 1_555 1_555
N2 B1 1_555 1_555
C1 C2 1_555 1_555
C2 H1 1_555 1_555
C3 C2 1_555 1_555
H2 C3 1_555 1_555
C4 C3 1_555 1_555
H3 C4 1_555 1_555
C5 C4 1_555 1_555
H4 C5 1_555 1_555
C6 N1 1_555 1_555
C7 S1 1_555 1_555
C8 C7 1_555 1_555
C9 N2 1_555 1_555
C10 C8 1_555 1_555
C11 C10 1_555 1_555
H5 C11 1_555 1_555
C12 C11 1_555 1_555
H6 C12 1_555 1_555
C13 C12 1_555 1_555
H7 C13 1_555 1_555
C14 C13 1_555 1_555
H8 C14 1_555 1_555
C15 C10 1_555 1_555
H9 C15 1_555 1_555
C16 C9 1_555 1_555
C17 C16 1_555 1_555
H10 C17 1_555 1_555
C18 C17 1_555 1_555
H11 C18 1_555 1_555
C19 C18 1_555 1_555
H12 C19 1_555 1_555
C20 C19 1_555 1_555
H13 C20 1_555 1_555
C21 C16 1_555 1_555
H14 C21 1_555 1_555
C22 N2 1_555 1_555
C23 C22 1_555 1_555
H15 C23 1_555 1_555
C24 C23 1_555 1_555
H16 C24 1_555 1_555
C25 C24 1_555 1_555
H17 C25 1_555 1_555
C26 C25 1_555 1_555
H18 C26 1_555 1_555
C27 C22 1_555 1_555
H19 C27 1_555 1_555
S2 C28 1_555 1_555
F3 B2 1_555 1_555
F4 B2 1_555 1_555
N3 B2 1_555 1_555
N4 B2 1_555 1_555
C28 C29 1_555 1_555
C29 H20 1_555 1_555
C30 C29 1_555 1_555
H21 C30 1_555 1_555
C31 C30 1_555 1_555
H22 C31 1_555 1_555
C32 C31 1_555 1_555
H23 C32 1_555 1_555
C33 N3 1_555 1_555
C34 S2 1_555 1_555
C35 C34 1_555 1_555
C36 N4 1_555 1_555
C37 C35 1_555 1_555
C38 C37 1_555 1_555
H24 C38 1_555 1_555
C39 C38 1_555 1_555
H25 C39 1_555 1_555
C40 C39 1_555 1_555
H26 C40 1_555 1_555
C41 C40 1_555 1_555
H27 C41 1_555 1_555
C42 C37 1_555 1_555
H28 C42 1_555 1_555
C43 C36 1_555 1_555
C44 C43 1_555 1_555
H29 C44 1_555 1_555
C45 C44 1_555 1_555
H30 C45 1_555 1_555
C46 C45 1_555 1_555
H31 C46 1_555 1_555
C47 C46 1_555 1_555
H32 C47 1_555 1_555
C48 C43 1_555 1_555
H33 C48 1_555 1_555
C49 N4 1_555 1_555
C50 C49 1_555 1_555
H34 C50 1_555 1_555
C51 C50 1_555 1_555
H35 C51 1_555 1_555
C52 C51 1_555 1_555
H36 C52 1_555 1_555
C53 C52 1_555 1_555
H37 C53 1_555 1_555
C54 C49 1_555 1_555
H38 C54 1_555 1_555
N1 C7 1_555 1_555
C1 C6 1_555 1_555
C5 C6 1_555 1_555
C8 C9 1_555 1_555
C14 C15 1_555 1_555
C20 C21 1_555 1_555
C26 C27 1_555 1_555
N3 C34 1_555 1_555
C28 C33 1_555 1_555
C32 C33 1_555 1_555
C35 C36 1_555 1_555
C41 C42 1_555 1_555
C47 C48 1_555 1_555
C53 C54 1_555 1_555

#END
