
#######################################################################
#
#                 Cambridge Crystallographic Data Centre
#                                CCDC 
#
#######################################################################
#
# If this CIF has been generated from an entry in the Cambridge 
# Structural Database, then it will include bibliographic, chemical, 
# crystal, experimental, refinement or atomic coordinate data resulting 
# from the CCDC's data processing and validation procedures.
#
#######################################################################

data_ZUKDAM
_chemical_formula_moiety         'C23 H26 O8'
_chemical_name_systematic        
'(7-hydroxy-6-(4-methoxyphenoxy)-2,2-dimethyltetrahydro-4H-[1,3]dioxolo[4,5-c]pyran-4-yl)methyl benzoate'
_symmetry_cell_setting           monoclinic
_symmetry_space_group_name_H-M   'C 2'
_symmetry_Int_Tables_number      5
_space_group_name_Hall           'C 2y'
loop_
_symmetry_equiv_pos_site_id
_symmetry_equiv_pos_as_xyz
1 x,y,z
2 -x,y,-z
3 1/2+x,1/2+y,z
4 1/2-x,1/2+y,-z
_cell_length_a                   20.410(4)
_cell_length_b                   5.8212(10)
_cell_length_c                   18.903(4)
_cell_angle_alpha                90
_cell_angle_beta                 95.216(7)
_cell_angle_gamma                90
_cell_volume                     2236.58
_exptl_crystal_colour            colorless
_exptl_crystal_description       needle
_cell_formula_units_Z            4
loop_
_atom_site_label
_atom_site_type_symbol
_atom_site_fract_x
_atom_site_fract_y
_atom_site_fract_z
O1 O 0.25151(17) -0.1133(7) 0.35938(18)
O2 O 0.26448(15) -0.0473(5) 0.21204(17)
O3 O 0.33627(17) 0.1128(6) 0.14052(17)
O4 O 0.5137(2) 0.5921(8) 0.3239(2)
O5 O 0.31274(19) -0.2640(6) 0.04282(19)
H1 H 0.3221 -0.1521 0.0194
O6 O 0.17534(19) -0.4431(6) 0.06395(17)
O7 O 0.13983(16) -0.2764(6) 0.16309(17)
O8 O 0.2149(2) 0.2511(8) 0.3502(2)
C1 C 0.4088(4) 0.2595(19) 0.5333(4)
H2 H 0.4426 0.2929 0.5682
C2 C 0.4073(4) 0.0488(15) 0.5010(4)
H3 H 0.4397 -0.0596 0.5136
C3 C 0.3570(4) -0.0008(12) 0.4492(3)
H4 H 0.3555 -0.1437 0.4271
C4 C 0.3092(3) 0.1585(12) 0.4300(3)
C5 C 0.2539(3) 0.1110(13) 0.3758(3)
C6 C 0.2035(2) -0.1888(9) 0.3034(3)
H5 H 0.1727 -0.0660 0.2901
H6 H 0.1790 -0.3192 0.3192
C7 C 0.2401(2) -0.2554(9) 0.2413(3)
H7 H 0.2780 -0.3490 0.2591
C8 C 0.3083(2) -0.0958(8) 0.1608(3)
H8 H 0.3426 -0.2026 0.1799
C9 C 0.3816(3) 0.2213(10) 0.1893(3)
C10 C 0.4171(3) 0.3955(9) 0.1620(3)
H9 H 0.4111 0.4290 0.1138
C11 C 0.4619(3) 0.5217(9) 0.2058(3)
H10 H 0.4855 0.6398 0.1868
C12 C 0.4715(3) 0.4738(11) 0.2768(4)
C13 C 0.5509(3) 0.7718(12) 0.2990(3)
H11 H 0.5771 0.7148 0.2631
H12 H 0.5792 0.8340 0.3377
H13 H 0.5220 0.8899 0.2792
C14 C 0.3115(3) 0.3714(11) 0.4632(3)
H14 H 0.2794 0.4809 0.4506
C15 C 0.3621(4) 0.4205(15) 0.5155(4)
H15 H 0.3639 0.5626 0.5380
C16 C 0.4359(3) 0.3020(13) 0.3034(3)
H16 H 0.4415 0.2698 0.3517
C17 C 0.3914(3) 0.1741(11) 0.2601(3)
H17 H 0.3682 0.0556 0.2794
C18 C 0.2706(2) -0.1951(8) 0.0946(3)
H18 H 0.2398 -0.0790 0.0739
C19 C 0.2318(2) -0.4066(9) 0.1144(3)
H19 H 0.2604 -0.5420 0.1153
C20 C 0.1177(3) -0.3590(9) 0.0947(3)
C21 C 0.2003(3) -0.3909(8) 0.1843(2)
H20 H 0.1915 -0.5454 0.2017
C22 C 0.0883(3) -0.1601(9) 0.0513(3)
H21 H 0.0491 -0.1084 0.0710
H22 H 0.0775 -0.2091 0.0031
H23 H 0.1195 -0.0367 0.0522
C23 C 0.0697(3) -0.5539(9) 0.0989(3)
H24 H 0.0903 -0.6760 0.1269
H25 H 0.0565 -0.6092 0.0520
H26 H 0.0318 -0.5007 0.1206
loop_
_geom_bond_atom_site_label_1
_geom_bond_atom_site_label_2
_geom_bond_site_symmetry_1
_geom_bond_site_symmetry_2
O1 C5 1_555 1_555
O2 C7 1_555 1_555
O3 C8 1_555 1_555
O4 C12 1_555 1_555
O5 H1 1_555 1_555
O6 C19 1_555 1_555
O7 C20 1_555 1_555
O8 C5 1_555 1_555
C1 H2 1_555 1_555
C2 C1 1_555 1_555
H3 C2 1_555 1_555
C3 C2 1_555 1_555
H4 C3 1_555 1_555
C4 C3 1_555 1_555
C5 C4 1_555 1_555
C6 O1 1_555 1_555
H5 C6 1_555 1_555
H6 C6 1_555 1_555
C7 C6 1_555 1_555
H7 C7 1_555 1_555
C8 O2 1_555 1_555
H8 C8 1_555 1_555
C9 O3 1_555 1_555
C10 C9 1_555 1_555
H9 C10 1_555 1_555
C11 C10 1_555 1_555
H10 C11 1_555 1_555
C12 C11 1_555 1_555
C13 O4 1_555 1_555
H11 C13 1_555 1_555
H12 C13 1_555 1_555
H13 C13 1_555 1_555
C14 C4 1_555 1_555
H14 C14 1_555 1_555
C15 C1 1_555 1_555
H15 C15 1_555 1_555
C16 C12 1_555 1_555
H16 C16 1_555 1_555
C17 C9 1_555 1_555
H17 C17 1_555 1_555
C18 O5 1_555 1_555
H18 C18 1_555 1_555
C19 C18 1_555 1_555
H19 C19 1_555 1_555
C20 O6 1_555 1_555
C21 O7 1_555 1_555
H20 C21 1_555 1_555
C22 C20 1_555 1_555
H21 C22 1_555 1_555
H22 C22 1_555 1_555
H23 C22 1_555 1_555
C23 C20 1_555 1_555
H24 C23 1_555 1_555
H25 C23 1_555 1_555
H26 C23 1_555 1_555
C7 C21 1_555 1_555
C8 C18 1_555 1_555
C14 C15 1_555 1_555
C16 C17 1_555 1_555
C19 C21 1_555 1_555

#END
