
#######################################################################
#
#                 Cambridge Crystallographic Data Centre
#                                CCDC 
#
#######################################################################
#
# If this CIF has been generated from an entry in the Cambridge 
# Structural Database, then it will include bibliographic, chemical, 
# crystal, experimental, refinement or atomic coordinate data resulting 
# from the CCDC's data processing and validation procedures.
#
#######################################################################

data_ZULBOZ
_chemical_formula_moiety         'C23 H19 B1 F2 N4'
_chemical_name_systematic        
((5,5-difluoro-1,3,7,9-tetramethyl-10-phenyl-5H-dipyrrolo[1,2-c:2',1'-f][1,3,2]diazaborinin-2-yl)methylene)malononitrile
_symmetry_cell_setting           monoclinic
_symmetry_space_group_name_H-M   'P 21/c'
_symmetry_Int_Tables_number      14
_space_group_name_Hall           '-P 2ybc'
loop_
_symmetry_equiv_pos_site_id
_symmetry_equiv_pos_as_xyz
1 x,y,z
2 -x,1/2+y,1/2-z
3 -x,-y,-z
4 x,1/2-y,1/2+z
_cell_length_a                   6.8054(10)
_cell_length_b                   17.464(3)
_cell_length_c                   16.883(3)
_cell_angle_alpha                90
_cell_angle_beta                 96.101(2)
_cell_angle_gamma                90
_cell_volume                     1995.17
_exptl_crystal_colour            red
_exptl_crystal_description       block
_cell_formula_units_Z            4
loop_
_atom_site_label
_atom_site_type_symbol
_atom_site_fract_x
_atom_site_fract_y
_atom_site_fract_z
B1 B 0.4011(6) 0.6419(2) 0.9355(2)
C1 C 0.0301(5) 0.8519(2) 0.75926(19)
H1 H -0.1030 0.8483 0.7342
H2 H 0.1182 0.8610 0.7195
H3 H 0.0396 0.8933 0.7968
F1 F 0.3168(3) 0.61380(10) 1.00122(11)
N1 N 0.2452(4) 0.68451(14) 0.87942(14)
C2 C 0.0856(5) 0.7783(2) 0.80184(18)
F2 F 0.4764(3) 0.58116(10) 0.89645(11)
N2 N 0.5665(4) 0.69889(13) 0.96187(14)
C3 C -0.0236(5) 0.7128(2) 0.7960(2)
H4 H -0.1446 0.7069 0.7654
N3 N 1.0509(5) 0.93700(19) 1.1283(2)
C4 C 0.0743(5) 0.6558(2) 0.8432(2)
N4 N 1.5124(5) 0.77030(17) 1.15847(19)
C5 C 0.0125(5) 0.5745(2) 0.8519(2)
H5 H 0.0554 0.5445 0.8093
H6 H -0.1288 0.5719 0.8501
H7 H 0.0712 0.5548 0.9020
C6 C 0.2595(4) 0.76129(17) 0.85519(17)
C7 C 0.4226(4) 0.80532(17) 0.88227(17)
C8 C 0.4373(4) 0.88483(17) 0.85224(19)
C9 C 0.3992(4) 0.94728(19) 0.89756(19)
H8 H 0.3645 0.9407 0.9489
C10 C 0.4129(5) 1.02020(19) 0.8664(2)
H9 H 0.3867 1.0625 0.8971
C11 C 0.4646(5) 1.0308(2) 0.7908(2)
H10 H 0.4743 1.0800 0.7703
C12 C 0.5020(5) 0.9683(2) 0.7456(2)
H11 H 0.5360 0.9750 0.6941
C13 C 0.4893(5) 0.89573(19) 0.7762(2)
H12 H 0.5160 0.8536 0.7454
C14 C 0.5764(4) 0.77492(16) 0.93580(17)
C15 C 0.7584(4) 0.80651(17) 0.96797(17)
C16 C 0.8464(4) 0.88240(17) 0.94967(18)
H13 H 0.7994 0.8974 0.8963
H14 H 0.9878 0.8782 0.9546
H15 H 0.8083 0.9202 0.9864
C17 C 0.8559(5) 0.74840(17) 1.01493(18)
C18 C 0.7340(5) 0.68287(17) 1.00807(18)
C19 C 0.7708(5) 0.60690(17) 1.0463(2)
H16 H 0.7184 0.6064 1.0969
H17 H 0.9104 0.5973 1.0541
H18 H 0.7073 0.5678 1.0127
C20 C 1.0498(5) 0.74665(18) 1.05824(18)
H19 H 1.1092 0.6986 1.0602
C21 C 1.1606(4) 0.80171(18) 1.09630(18)
C22 C 1.0962(5) 0.8766(2) 1.1119(2)
C23 C 1.3573(5) 0.78362(18) 1.1312(2)
loop_
_geom_bond_atom_site_label_1
_geom_bond_atom_site_label_2
_geom_bond_site_symmetry_1
_geom_bond_site_symmetry_2
B1 F1 1_555 1_555
C1 H1 1_555 1_555
H2 C1 1_555 1_555
H3 C1 1_555 1_555
N1 B1 1_555 1_555
C2 C1 1_555 1_555
F2 B1 1_555 1_555
N2 B1 1_555 1_555
C3 C2 1_555 1_555
H4 C3 1_555 1_555
N3 C22 1_555 1_555
C4 N1 1_555 1_555
N4 C23 1_555 1_555
C5 C4 1_555 1_555
H5 C5 1_555 1_555
H6 C5 1_555 1_555
H7 C5 1_555 1_555
C6 N1 1_555 1_555
C7 C6 1_555 1_555
C8 C7 1_555 1_555
C9 C8 1_555 1_555
H8 C9 1_555 1_555
C10 C9 1_555 1_555
H9 C10 1_555 1_555
C11 C10 1_555 1_555
H10 C11 1_555 1_555
C12 C11 1_555 1_555
H11 C12 1_555 1_555
C13 C8 1_555 1_555
H12 C13 1_555 1_555
C14 N2 1_555 1_555
C15 C14 1_555 1_555
C16 C15 1_555 1_555
H13 C16 1_555 1_555
H14 C16 1_555 1_555
H15 C16 1_555 1_555
C17 C15 1_555 1_555
C18 N2 1_555 1_555
C19 C18 1_555 1_555
H16 C19 1_555 1_555
H17 C19 1_555 1_555
H18 C19 1_555 1_555
C20 C17 1_555 1_555
H19 C20 1_555 1_555
C21 C20 1_555 1_555
C22 C21 1_555 1_555
C23 C21 1_555 1_555
C2 C6 1_555 1_555
C3 C4 1_555 1_555
C7 C14 1_555 1_555
C12 C13 1_555 1_555
C17 C18 1_555 1_555

#END
