
#######################################################################
#
#                 Cambridge Crystallographic Data Centre
#                                CCDC 
#
#######################################################################
#
# If this CIF has been generated from an entry in the Cambridge 
# Structural Database, then it will include bibliographic, chemical, 
# crystal, experimental, refinement or atomic coordinate data resulting 
# from the CCDC's data processing and validation procedures.
#
#######################################################################

data_ZULKOI
_chemical_formula_moiety         'C64 H94 Ca1 O16'
_chemical_name_systematic        
(2,2'-((9,29-Dihydroxy-14,34-dimethyl-11,31-dioxo-12,32,41,42-tetraoxapentacyclo[35.3.1.1^17,21^.0^5,10^.0^25,30^]dotetraconta-5,7,9,25,27,29-hexaene-13,33-diyl)bis((2-oxypropane-3,1-diyl)tetrahydro-2H-pyran-6,2-diyl))bis(2-methylpropanoato))-calcium
_symmetry_cell_setting           tetragonal
_symmetry_space_group_name_H-M   'P 43 21 2'
_symmetry_Int_Tables_number      96
_space_group_name_Hall           'P 4nw 2abw'
loop_
_symmetry_equiv_pos_site_id
_symmetry_equiv_pos_as_xyz
1 x,y,z
2 -x,-y,1/2+z
3 1/2-y,1/2+x,3/4+z
4 1/2+y,1/2-x,1/4+z
5 1/2-x,1/2+y,3/4-z
6 1/2+x,1/2-y,1/4-z
7 y,x,-z
8 -y,-x,1/2-z
_cell_length_a                   12.6369(3)
_cell_length_b                   12.6369(3)
_cell_length_c                   40.5962(9)
_cell_angle_alpha                90
_cell_angle_beta                 90
_cell_angle_gamma                90
_cell_volume                     6482.86
_exptl_crystal_colour            colorless
_exptl_crystal_description       block
_cell_formula_units_Z            4
loop_
_atom_site_label
_atom_site_type_symbol
_atom_site_fract_x
_atom_site_fract_y
_atom_site_fract_z
Ca1 Ca 0.32416(6) 0.32416(6) 0.0000
O1 O 0.3857(2) 0.3175(2) -0.06045(6)
H1 H 0.331(3) 0.287(3) -0.0646(8)
O2 O 0.2589(2) 0.18020(19) -0.09790(5)
O3 O 0.2054(2) 0.2384(2) -0.03472(6)
O4 O 0.0487(2) 0.3124(3) -0.03955(9)
O5 O 0.4449(3) 0.1543(2) 0.00870(6)
H2 H 0.400(5) 0.102(4) 0.0224(14)
O6 O 0.5138(2) 0.3583(2) 0.00556(5)
O7 O 0.63861(17) 0.32443(18) -0.03188(5)
O8 O 0.80002(19) 0.5942(2) 0.05401(6)
C1 C 0.1172(4) 0.2434(4) -0.04741(11)
C2 C 0.0842(3) 0.1693(3) -0.07537(10)
C3 C 0.0344(4) 0.2327(4) -0.10329(13)
H3 H -0.0247 0.2722 -0.0950
H4 H 0.0106 0.1853 -0.1202
H5 H 0.0859 0.2805 -0.1123
C4 C 0.0026(4) 0.0927(4) -0.06018(15)
H6 H 0.0351 0.0536 -0.0426
H7 H -0.0220 0.0446 -0.0768
H8 H -0.0561 0.1324 -0.0517
C5 C 0.1795(3) 0.1059(3) -0.08728(9)
H9 H 0.2080 0.0664 -0.0685
C6 C 0.1589(4) 0.0280(4) -0.11508(11)
H10 H 0.1289 0.0652 -0.1338
H11 H 0.1080 -0.0246 -0.1079
C7 C 0.2610(4) -0.0270(4) -0.12556(13)
H12 H 0.2476 -0.0708 -0.1447
H13 H 0.2858 -0.0724 -0.1079
C8 C 0.3455(4) 0.0555(3) -0.13371(10)
H14 H 0.4125 0.0206 -0.1381
H15 H 0.3252 0.0944 -0.1533
C9 C 0.3576(3) 0.1313(3) -0.10485(9)
H16 H 0.3788 0.0901 -0.0855
C10 C 0.4382(3) 0.2190(3) -0.10981(8)
H17 H 0.4079 0.2722 -0.1242
H18 H 0.4998 0.1898 -0.1208
C11 C 0.4737(3) 0.2722(3) -0.07777(8)
H19 H 0.5050 0.2176 -0.0636
C12 C 0.5456(4) 0.1351(3) 0.01986(9)
C13 C 0.5693(5) 0.0435(4) 0.03588(10)
H20 H 0.5164 -0.0053 0.0407
C14 C 0.6718(5) 0.0242(3) 0.04483(10)
H21 H 0.6880 -0.0387 0.0556
C15 C 0.7531(4) 0.0967(4) 0.03815(10)
H22 H 0.8223 0.0817 0.0445
C16 C 0.7299(3) 0.1904(3) 0.02210(8)
C17 C 0.6253(3) 0.2083(3) 0.01298(8)
C18 C 0.5883(3) 0.3046(3) -0.00397(9)
C19 C 0.8157(3) 0.2714(3) 0.01656(9)
H23 H 0.8125 0.2954 -0.0061
H24 H 0.8840 0.2379 0.0198
C20 C 0.8074(3) 0.3663(3) 0.03914(9)
H25 H 0.7395 0.4002 0.0357
H26 H 0.8100 0.3423 0.0618
C21 C 0.8941(3) 0.4465(3) 0.03369(9)
H27 H 0.9617 0.4101 0.0347
H28 H 0.8867 0.4751 0.0116
C22 C 0.8968(3) 0.5373(3) 0.05769(9)
H29 H 0.9000 0.5087 0.0801
C23 C 0.9894(3) 0.6123(3) 0.05277(10)
H30 H 1.0551 0.5740 0.0561
H31 H 0.9887 0.6386 0.0303
C24 C 0.9846(3) 0.7043(4) 0.07636(12)
H32 H 1.0407 0.7541 0.0714
H33 H 0.9943 0.6793 0.0988
C25 C 0.8783(3) 0.7584(3) 0.07319(11)
H34 H 0.8733 0.7921 0.0518
H35 H 0.8721 0.8128 0.0899
C26 C 0.7886(3) 0.6793(3) 0.07708(9)
H36 H 0.7905 0.6504 0.0995
C27 C 0.6810(3) 0.7276(3) 0.07097(11)
H37 H 0.6803 0.7585 0.0491
H38 H 0.6699 0.7844 0.0867
C28 C 0.5890(3) 0.6491(3) 0.07376(9)
H39 H 0.6095 0.5828 0.0635
H40 H 0.5751 0.6352 0.0969
C29 C 0.6891(3) 0.4882(3) -0.05758(8)
H41 H 0.7131 0.5079 -0.0355
C30 C 0.7841(3) 0.4406(3) -0.07510(10)
H42 H 0.8046 0.3763 -0.0643
H43 H 0.8419 0.4899 -0.0745
H44 H 0.7659 0.4257 -0.0976
C31 C 0.5983(3) 0.4096(3) -0.05292(8)
H45 H 0.5396 0.4452 -0.0417
C32 C 0.5567(3) 0.3558(3) -0.08376(8)
H46 H 0.5271 0.4094 -0.0982
H47 H 0.6158 0.3235 -0.0952
O5F O 0.1543(2) 0.4449(3) -0.00870(6)
H2F H 0.102(4) 0.400(5) -0.0224(14)
O6F O 0.3583(2) 0.5138(2) -0.00556(5)
O7F O 0.32443(18) 0.63861(17) 0.03188(5)
O8F O 0.5942(2) 0.80002(19) -0.05401(6)
C12F C 0.1351(3) 0.5456(4) -0.01986(9)
C13F C 0.0435(4) 0.5693(5) -0.03588(10)
H20F H -0.0053 0.5164 -0.0407
C14F C 0.0242(3) 0.6718(5) -0.04483(10)
H21F H -0.0387 0.6880 -0.0556
C15F C 0.0967(4) 0.7531(4) -0.03815(10)
H22F H 0.0817 0.8223 -0.0445
C16F C 0.1904(3) 0.7299(3) -0.02210(8)
C17F C 0.2083(3) 0.6253(3) -0.01298(8)
C18F C 0.3046(3) 0.5883(3) 0.00397(9)
C19F C 0.2714(3) 0.8157(3) -0.01656(9)
H23F H 0.2954 0.8125 0.0061
H24F H 0.2379 0.8840 -0.0198
C20F C 0.3663(3) 0.8074(3) -0.03914(9)
H25F H 0.4002 0.7395 -0.0357
H26F H 0.3423 0.8100 -0.0618
C21F C 0.4465(3) 0.8941(3) -0.03369(9)
H27F H 0.4101 0.9617 -0.0347
H28F H 0.4751 0.8867 -0.0116
C22F C 0.5373(3) 0.8968(3) -0.05769(9)
H29F H 0.5087 0.9000 -0.0801
C23F C 0.6123(3) 0.9894(3) -0.05277(10)
H30F H 0.5740 1.0551 -0.0561
H31F H 0.6386 0.9887 -0.0303
C24F C 0.7043(4) 0.9846(3) -0.07636(12)
H32F H 0.7541 1.0407 -0.0714
H33F H 0.6793 0.9943 -0.0988
C25F C 0.7584(3) 0.8783(3) -0.07319(11)
H34F H 0.7921 0.8733 -0.0518
H35F H 0.8128 0.8721 -0.0899
C26F C 0.6793(3) 0.7886(3) -0.07708(9)
H36F H 0.6504 0.7905 -0.0995
C27F C 0.7276(3) 0.6810(3) -0.07097(11)
H37F H 0.7585 0.6803 -0.0491
H38F H 0.7844 0.6699 -0.0867
C28F C 0.6491(3) 0.5890(3) -0.07376(9)
H39F H 0.5828 0.6095 -0.0635
H40F H 0.6352 0.5751 -0.0969
C29F C 0.4882(3) 0.6891(3) 0.05758(8)
H41F H 0.5079 0.7131 0.0355
C30F C 0.4406(3) 0.7841(3) 0.07510(10)
H42F H 0.3763 0.8046 0.0643
H43F H 0.4899 0.8419 0.0745
H44F H 0.4257 0.7659 0.0976
C31F C 0.4096(3) 0.5983(3) 0.05292(8)
H45F H 0.4452 0.5396 0.0417
C32F C 0.3558(3) 0.5567(3) 0.08376(8)
H46F H 0.4094 0.5271 0.0982
H47F H 0.3235 0.6158 0.0952
O1F O 0.3175(2) 0.3857(2) 0.06045(6)
H1F H 0.287(3) 0.331(3) 0.0646(8)
O2F O 0.18020(19) 0.2589(2) 0.09790(5)
O3F O 0.2384(2) 0.2054(2) 0.03472(6)
O4F O 0.3124(3) 0.0487(2) 0.03955(9)
C1F C 0.2434(4) 0.1172(4) 0.04741(11)
C2F C 0.1693(3) 0.0842(3) 0.07537(10)
C3F C 0.2327(4) 0.0344(4) 0.10329(13)
H3F H 0.2722 -0.0247 0.0950
H4F H 0.1853 0.0106 0.1202
H5F H 0.2805 0.0859 0.1123
C4F C 0.0927(4) 0.0026(4) 0.06018(15)
H6F H 0.0536 0.0351 0.0426
H7F H 0.0446 -0.0220 0.0768
H8F H 0.1324 -0.0561 0.0517
C5F C 0.1059(3) 0.1795(3) 0.08728(9)
H9F H 0.0664 0.2080 0.0685
C6F C 0.0280(4) 0.1589(4) 0.11508(11)
H10F H 0.0652 0.1289 0.1338
H11F H -0.0246 0.1080 0.1079
C7F C -0.0270(4) 0.2610(4) 0.12556(13)
H12F H -0.0708 0.2476 0.1447
H13F H -0.0724 0.2858 0.1079
C8F C 0.0555(3) 0.3455(4) 0.13371(10)
H14F H 0.0206 0.4125 0.1381
H15F H 0.0944 0.3252 0.1533
C9F C 0.1313(3) 0.3576(3) 0.10485(9)
H16F H 0.0901 0.3788 0.0855
C10F C 0.2190(3) 0.4382(3) 0.10981(8)
H17F H 0.2722 0.4079 0.1242
H18F H 0.1898 0.4998 0.1208
C11F C 0.2722(3) 0.4737(3) 0.07777(8)
H19F H 0.2176 0.5050 0.0636
loop_
_geom_bond_atom_site_label_1
_geom_bond_atom_site_label_2
_geom_bond_site_symmetry_1
_geom_bond_site_symmetry_2
Ca1 O1 1_555 1_555
O1 H1 1_555 1_555
O2 C5 1_555 1_555
O3 Ca1 1_555 1_555
O4 C1 1_555 1_555
O5 Ca1 1_555 1_555
H2 O5 1_555 1_555
O6 Ca1 1_555 1_555
O7 C18 1_555 1_555
O8 C22 1_555 1_555
C1 O3 1_555 1_555
C2 C1 1_555 1_555
C3 C2 1_555 1_555
H3 C3 1_555 1_555
H4 C3 1_555 1_555
H5 C3 1_555 1_555
C4 C2 1_555 1_555
H6 C4 1_555 1_555
H7 C4 1_555 1_555
H8 C4 1_555 1_555
C5 C2 1_555 1_555
H9 C5 1_555 1_555
C6 C5 1_555 1_555
H10 C6 1_555 1_555
H11 C6 1_555 1_555
C7 C6 1_555 1_555
H12 C7 1_555 1_555
H13 C7 1_555 1_555
C8 C7 1_555 1_555
H14 C8 1_555 1_555
H15 C8 1_555 1_555
C9 O2 1_555 1_555
H16 C9 1_555 1_555
C10 C9 1_555 1_555
H17 C10 1_555 1_555
H18 C10 1_555 1_555
C11 O1 1_555 1_555
H19 C11 1_555 1_555
C12 O5 1_555 1_555
C13 C12 1_555 1_555
H20 C13 1_555 1_555
C14 C13 1_555 1_555
H21 C14 1_555 1_555
C15 C14 1_555 1_555
H22 C15 1_555 1_555
C16 C15 1_555 1_555
C17 C12 1_555 1_555
C18 O6 1_555 1_555
C19 C16 1_555 1_555
H23 C19 1_555 1_555
H24 C19 1_555 1_555
C20 C19 1_555 1_555
H25 C20 1_555 1_555
H26 C20 1_555 1_555
C21 C20 1_555 1_555
H27 C21 1_555 1_555
H28 C21 1_555 1_555
C22 C21 1_555 1_555
H29 C22 1_555 1_555
C23 C22 1_555 1_555
H30 C23 1_555 1_555
H31 C23 1_555 1_555
C24 C23 1_555 1_555
H32 C24 1_555 1_555
H33 C24 1_555 1_555
C25 C24 1_555 1_555
H34 C25 1_555 1_555
H35 C25 1_555 1_555
C26 O8 1_555 1_555
H36 C26 1_555 1_555
C27 C26 1_555 1_555
H37 C27 1_555 1_555
H38 C27 1_555 1_555
C28 C27 1_555 1_555
H39 C28 1_555 1_555
H40 C28 1_555 1_555
C29 H41 1_555 1_555
C30 C29 1_555 1_555
H42 C30 1_555 1_555
H43 C30 1_555 1_555
H44 C30 1_555 1_555
C31 O7 1_555 1_555
H45 C31 1_555 1_555
C32 C11 1_555 1_555
H46 C32 1_555 1_555
H47 C32 1_555 1_555
O5F Ca1 1_555 1_555
H2F O5F 1_555 1_555
O6F Ca1 1_555 1_555
O7F C18F 1_555 1_555
O8F C22F 1_555 1_555
C12F O5F 1_555 1_555
C13F C12F 1_555 1_555
H20F C13F 1_555 1_555
C14F C13F 1_555 1_555
H21F C14F 1_555 1_555
C15F C14F 1_555 1_555
H22F C15F 1_555 1_555
C16F C15F 1_555 1_555
C17F C12F 1_555 1_555
C18F O6F 1_555 1_555
C19F C16F 1_555 1_555
H23F C19F 1_555 1_555
H24F C19F 1_555 1_555
C20F C19F 1_555 1_555
H25F C20F 1_555 1_555
H26F C20F 1_555 1_555
C21F C20F 1_555 1_555
H27F C21F 1_555 1_555
H28F C21F 1_555 1_555
C22F C21F 1_555 1_555
H29F C22F 1_555 1_555
C23F C22F 1_555 1_555
H30F C23F 1_555 1_555
H31F C23F 1_555 1_555
C24F C23F 1_555 1_555
H32F C24F 1_555 1_555
H33F C24F 1_555 1_555
C25F C24F 1_555 1_555
H34F C25F 1_555 1_555
H35F C25F 1_555 1_555
C26F O8F 1_555 1_555
H36F C26F 1_555 1_555
C27F C26F 1_555 1_555
H37F C27F 1_555 1_555
H38F C27F 1_555 1_555
C28F C29 1_555 1_555
H39F C28F 1_555 1_555
H40F C28F 1_555 1_555
C29F C28 1_555 1_555
H41F C29F 1_555 1_555
C30F C29F 1_555 1_555
H42F C30F 1_555 1_555
H43F C30F 1_555 1_555
H44F C30F 1_555 1_555
C31F O7F 1_555 1_555
H45F C31F 1_555 1_555
C32F C31F 1_555 1_555
H46F C32F 1_555 1_555
H47F C32F 1_555 1_555
O1F Ca1 1_555 1_555
H1F O1F 1_555 1_555
O2F C5F 1_555 1_555
O3F Ca1 1_555 1_555
O4F C1F 1_555 1_555
C1F O3F 1_555 1_555
C2F C1F 1_555 1_555
C3F C2F 1_555 1_555
H3F C3F 1_555 1_555
H4F C3F 1_555 1_555
H5F C3F 1_555 1_555
C4F C2F 1_555 1_555
H6F C4F 1_555 1_555
H7F C4F 1_555 1_555
H8F C4F 1_555 1_555
C5F C2F 1_555 1_555
H9F C5F 1_555 1_555
C6F C5F 1_555 1_555
H10F C6F 1_555 1_555
H11F C6F 1_555 1_555
C7F C6F 1_555 1_555
H12F C7F 1_555 1_555
H13F C7F 1_555 1_555
C8F C7F 1_555 1_555
H14F C8F 1_555 1_555
H15F C8F 1_555 1_555
C9F O2F 1_555 1_555
H16F C9F 1_555 1_555
C10F C9F 1_555 1_555
H17F C10F 1_555 1_555
H18F C10F 1_555 1_555
C11F C32F 1_555 1_555
H19F C11F 1_555 1_555
C8 C9 1_555 1_555
C10 C11 1_555 1_555
C16 C17 1_555 1_555
C17 C18 1_555 1_555
C25 C26 1_555 1_555
C29 C31 1_555 1_555
C31 C32 1_555 1_555
C16F C17F 1_555 1_555
C17F C18F 1_555 1_555
C25F C26F 1_555 1_555
C27F C28F 1_555 1_555
C29F C31F 1_555 1_555
O1F C11F 1_555 1_555
C8F C9F 1_555 1_555
C10F C11F 1_555 1_555

#END
