
#######################################################################
#
#                 Cambridge Crystallographic Data Centre
#                                CCDC 
#
#######################################################################
#
# If this CIF has been generated from an entry in the Cambridge 
# Structural Database, then it will include bibliographic, chemical, 
# crystal, experimental, refinement or atomic coordinate data resulting 
# from the CCDC's data processing and validation procedures.
#
#######################################################################

data_ZULKIA
_chemical_formula_moiety         'C52 H57 B1 N1 P1'
_chemical_name_systematic        
4,6-Dibutyl-2-diphenylphosphino-1,1,3,5-tetraphenyl-3-aza-4-boradeca-1,5-diene
_symmetry_cell_setting           triclinic
_symmetry_space_group_name_H-M   'P -1'
_symmetry_Int_Tables_number      2
_space_group_name_Hall           '-P 1'
loop_
_symmetry_equiv_pos_site_id
_symmetry_equiv_pos_as_xyz
1 x,y,z
2 -x,-y,-z
_cell_length_a                   11.674(4)
_cell_length_b                   12.952(6)
_cell_length_c                   15.169(5)
_cell_angle_alpha                92.93(2)
_cell_angle_beta                 99.16(2)
_cell_angle_gamma                93.57(2)
_cell_volume                     2255.6
_exptl_crystal_colour            colorless
_chemical_melting_point          '139-144 deg.C'
_cell_formula_units_Z            2
loop_
_atom_site_label
_atom_site_type_symbol
_atom_site_fract_x
_atom_site_fract_y
_atom_site_fract_z
P1 P 0.2394(1) 0.2054(1) 0.5173(1)
N1 N 0.2912(3) 0.2692(3) 0.7007(3)
B1 B 0.2943(5) 0.1922(5) 0.7655(4)
C1 C 0.2009(4) 0.2630(4) 0.6227(3)
C2 C 0.3805(5) 0.2054(4) 0.8580(3)
C3 C 0.4752(5) 0.1530(4) 0.8781(4)
C4 C 0.0871(5) 0.2760(4) 0.6277(4)
C5 C 0.3987(4) 0.2225(4) 0.5310(3)
C6 C 0.4648(5) 0.3119(5) 0.5095(4)
C7 C 0.5846(6) 0.3096(6) 0.5165(5)
C8 C 0.6407(6) 0.2238(6) 0.5459(5)
C9 C 0.5796(6) 0.1384(6) 0.5657(5)
C10 C 0.4590(6) 0.1371(5) 0.5588(4)
C11 C 0.1959(4) 0.2957(4) 0.4324(3)
C12 C 0.1441(5) 0.2485(5) 0.3488(4)
C13 C 0.1089(6) 0.3106(6) 0.2769(4)
C14 C 0.1213(6) 0.4130(6) 0.2888(5)
C15 C 0.1690(5) 0.4617(5) 0.3705(5)
C16 C 0.2060(5) 0.4031(5) 0.4408(4)
C17 C 0.3752(4) 0.3570(4) 0.7059(3)
C18 C 0.3377(5) 0.4525(4) 0.6855(4)
C19 C 0.4185(6) 0.5382(5) 0.6901(5)
C20 C 0.5369(5) 0.5262(5) 0.7175(5)
C21 C 0.5735(5) 0.4311(5) 0.7355(4)
C22 C 0.4947(4) 0.3458(4) 0.7302(3)
C23 C 0.2041(5) 0.0921(5) 0.7461(4)
C24 C 0.1300(7) 0.0692(6) 0.8172(5)
C25 C 0.0321(7) -0.0123(7) 0.7897(6)
C26 C -0.0404(8) -0.0274(8) 0.8592(7)
C27 C 0.3437(5) 0.2758(4) 0.9292(4)
C28 C 0.2781(6) 0.2352(5) 0.9925(4)
C29 C 0.2444(6) 0.2997(6) 1.0572(5)
C30 C 0.2739(6) 0.4015(6) 1.0625(5)
C31 C 0.3376(6) 0.4445(6) 1.0032(5)
C32 C 0.3720(6) 0.3794(5) 0.9359(4)
C33 C 0.5176(6) 0.0837(5) 0.8062(4)
C34 C 0.5182(8) -0.0264(6) 0.8228(6)
C35 C 0.5483(9) -0.0959(8) 0.7392(8)
C36 C 0.5409(9) -0.1826(9) 0.7364(9)
C37 C 0.5520(5) 0.1590(5) 0.9682(4)
C38 C 0.6664(7) 0.2241(6) 0.9740(6)
C39 C 0.7323(9) 0.2332(8) 1.0715(8)
C40 C 0.7926(10) 0.3028(9) 1.1065(9)
C41 C -0.0009(4) 0.2565(4) 0.5441(4)
C42 C -0.0410(5) 0.1556(4) 0.5125(4)
C43 C -0.1214(5) 0.1364(5) 0.4350(5)
C44 C -0.1643(6) 0.2162(6) 0.3878(5)
C45 C -0.1271(5) 0.3176(5) 0.4192(5)
C46 C -0.0490(5) 0.3350(5) 0.4978(4)
C47 C 0.0376(5) 0.3042(4) 0.7113(4)
C48 C 0.0956(5) 0.3686(4) 0.7831(4)
C49 C 0.0446(5) 0.3881(5) 0.8586(4)
C50 C -0.0654(6) 0.3456(5) 0.8620(5)
C51 C -0.1248(6) 0.2839(5) 0.7932(5)
C52 C -0.0750(5) 0.2635(5) 0.7167(4)
loop_
_geom_bond_atom_site_label_1
_geom_bond_atom_site_label_2
_geom_bond_site_symmetry_1
_geom_bond_site_symmetry_2
P1 C1 1_555 1_555
N1 B1 1_555 1_555
B1 C2 1_555 1_555
C1 N1 1_555 1_555
C2 C3 1_555 1_555
C3 C33 1_555 1_555
C4 C1 1_555 1_555
C5 P1 1_555 1_555
C6 C5 1_555 1_555
C7 C6 1_555 1_555
C8 C7 1_555 1_555
C9 C8 1_555 1_555
C10 C5 1_555 1_555
C11 P1 1_555 1_555
C12 C11 1_555 1_555
C13 C12 1_555 1_555
C14 C13 1_555 1_555
C15 C14 1_555 1_555
C16 C11 1_555 1_555
C17 N1 1_555 1_555
C18 C17 1_555 1_555
C19 C18 1_555 1_555
C20 C19 1_555 1_555
C21 C20 1_555 1_555
C22 C17 1_555 1_555
C23 B1 1_555 1_555
C24 C23 1_555 1_555
C25 C24 1_555 1_555
C26 C25 1_555 1_555
C27 C2 1_555 1_555
C28 C27 1_555 1_555
C29 C28 1_555 1_555
C30 C29 1_555 1_555
C31 C30 1_555 1_555
C32 C27 1_555 1_555
C33 C34 1_555 1_555
C34 C35 1_555 1_555
C35 C36 1_555 1_555
C37 C3 1_555 1_555
C38 C37 1_555 1_555
C39 C38 1_555 1_555
C40 C39 1_555 1_555
C41 C4 1_555 1_555
C42 C41 1_555 1_555
C43 C42 1_555 1_555
C44 C43 1_555 1_555
C45 C44 1_555 1_555
C46 C41 1_555 1_555
C47 C4 1_555 1_555
C48 C47 1_555 1_555
C49 C48 1_555 1_555
C50 C49 1_555 1_555
C51 C50 1_555 1_555
C52 C47 1_555 1_555
C9 C10 1_555 1_555
C15 C16 1_555 1_555
C21 C22 1_555 1_555
C31 C32 1_555 1_555
C45 C46 1_555 1_555
C51 C52 1_555 1_555

#END
