
#######################################################################
#
#                 Cambridge Crystallographic Data Centre
#                                CCDC 
#
#######################################################################
#
# If this CIF has been generated from an entry in the Cambridge 
# Structural Database, then it will include bibliographic, chemical, 
# crystal, experimental, refinement or atomic coordinate data resulting 
# from the CCDC's data processing and validation procedures.
#
#######################################################################

data_ZULZOX
_chemical_formula_moiety         'C20 H36 N2 O4'
_chemical_name_systematic        
"di-t-butyl 4,4'-bipiperidine-1,1'-dicarboxylate"
_symmetry_cell_setting           monoclinic
_symmetry_space_group_name_H-M   'P 21/c'
_symmetry_Int_Tables_number      14
_space_group_name_Hall           '-P 2ybc'
loop_
_symmetry_equiv_pos_site_id
_symmetry_equiv_pos_as_xyz
1 x,y,z
2 -x,1/2+y,1/2-z
3 -x,-y,-z
4 x,1/2-y,1/2+z
_cell_length_a                   9.259(4)
_cell_length_b                   6.367(2)
_cell_length_c                   18.158(12)
_cell_angle_alpha                90
_cell_angle_beta                 97.41(4)
_cell_angle_gamma                90
_cell_volume                     1061.51
_exptl_crystal_colour            colorless
_exptl_crystal_description       block
_cell_formula_units_Z            2
loop_
_atom_site_label
_atom_site_type_symbol
_atom_site_fract_x
_atom_site_fract_y
_atom_site_fract_z
O1 O 0.29848(16) 0.5439(2) 0.28830(7)
O2 O 0.25909(18) 0.1934(2) 0.27964(8)
N1 N 0.15106(19) 0.4179(3) 0.19238(9)
C1 C 0.1087(3) 0.6302(3) 0.16891(11)
H1 H 0.1783 0.7298 0.1933
H2 H 0.0138 0.6622 0.1833
C2 C 0.1029(2) 0.6516(3) 0.08506(10)
H3 H 0.0679 0.7908 0.0703
H4 H 0.2006 0.6372 0.0718
C3 C 0.00466(19) 0.4889(3) 0.04265(9)
H5 H -0.0937 0.5089 0.0559
C4 C 0.0567(2) 0.2737(3) 0.07051(11)
H6 H 0.1532 0.2486 0.0570
H7 H -0.0081 0.1675 0.0464
C5 C 0.0619(3) 0.2526(3) 0.15473(11)
H8 H -0.0361 0.2611 0.1681
H9 H 0.1020 0.1167 0.1705
C6 C 0.2383(2) 0.3707(3) 0.25588(11)
C7 C 0.3968(2) 0.5315(3) 0.35869(11)
C8 C 0.3180(3) 0.4359(5) 0.41894(13)
H10 H 0.2291 0.5114 0.4218
H11 H 0.3790 0.4445 0.4658
H12 H 0.2960 0.2914 0.4073
C9 C 0.4317(3) 0.7600(4) 0.37443(15)
H13 H 0.4771 0.8183 0.3344
H14 H 0.4968 0.7717 0.4199
H15 H 0.3435 0.8352 0.3790
C10 C 0.5317(3) 0.4114(5) 0.34710(14)
H16 H 0.5068 0.2674 0.3361
H17 H 0.6005 0.4183 0.3914
H18 H 0.5740 0.4717 0.3064
O1B O -0.29848(16) 0.4561(2) -0.28830(7)
O2B O -0.25909(18) 0.8066(2) -0.27964(8)
N1B N -0.15106(19) 0.5821(3) -0.19238(9)
C1B C -0.1087(3) 0.3698(3) -0.16891(11)
H1B H -0.1783 0.2702 -0.1933
H2B H -0.0138 0.3378 -0.1833
C2B C -0.1029(2) 0.3484(3) -0.08506(10)
H3B H -0.0679 0.2092 -0.0703
H4B H -0.2006 0.3628 -0.0718
C3B C -0.00466(19) 0.5111(3) -0.04265(9)
H5B H 0.0937 0.4911 -0.0559
C4B C -0.0567(2) 0.7263(3) -0.07051(11)
H6B H -0.1532 0.7514 -0.0570
H7B H 0.0081 0.8325 -0.0464
C5B C -0.0619(3) 0.7474(3) -0.15473(11)
H8B H 0.0361 0.7389 -0.1681
H9B H -0.1020 0.8833 -0.1705
C6B C -0.2383(2) 0.6293(3) -0.25588(11)
C7B C -0.3968(2) 0.4685(3) -0.35869(11)
C8B C -0.3180(3) 0.5641(5) -0.41894(13)
H10B H -0.2291 0.4886 -0.4218
H11B H -0.3790 0.5555 -0.4658
H12B H -0.2960 0.7086 -0.4073
C9B C -0.4317(3) 0.2400(4) -0.37443(15)
H13B H -0.4771 0.1817 -0.3344
H14B H -0.4968 0.2283 -0.4199
H15B H -0.3435 0.1648 -0.3790
C10B C -0.5317(3) 0.5886(5) -0.34710(14)
H16B H -0.5068 0.7326 -0.3361
H17B H -0.6005 0.5817 -0.3914
H18B H -0.5740 0.5283 -0.3064
loop_
_geom_bond_atom_site_label_1
_geom_bond_atom_site_label_2
_geom_bond_site_symmetry_1
_geom_bond_site_symmetry_2
O1 C6 1_555 1_555
O2 C6 1_555 1_555
N1 C1 1_555 1_555
C1 H1 1_555 1_555
H2 C1 1_555 1_555
C2 C1 1_555 1_555
H3 C2 1_555 1_555
H4 C2 1_555 1_555
C3 C2 1_555 1_555
H5 C3 1_555 1_555
C4 C3 1_555 1_555
H6 C4 1_555 1_555
H7 C4 1_555 1_555
C5 N1 1_555 1_555
H8 C5 1_555 1_555
H9 C5 1_555 1_555
C6 N1 1_555 1_555
C7 O1 1_555 1_555
C8 C7 1_555 1_555
H10 C8 1_555 1_555
H11 C8 1_555 1_555
H12 C8 1_555 1_555
C9 C7 1_555 1_555
H13 C9 1_555 1_555
H14 C9 1_555 1_555
H15 C9 1_555 1_555
C10 C7 1_555 1_555
H16 C10 1_555 1_555
H17 C10 1_555 1_555
H18 C10 1_555 1_555
O1B C6B 1_555 1_555
O2B C6B 1_555 1_555
N1B C1B 1_555 1_555
C1B H1B 1_555 1_555
H2B C1B 1_555 1_555
C2B C1B 1_555 1_555
H3B C2B 1_555 1_555
H4B C2B 1_555 1_555
C3B C3 1_555 1_555
H5B C3B 1_555 1_555
C4B C3B 1_555 1_555
H6B C4B 1_555 1_555
H7B C4B 1_555 1_555
C5B N1B 1_555 1_555
H8B C5B 1_555 1_555
H9B C5B 1_555 1_555
C6B N1B 1_555 1_555
C7B O1B 1_555 1_555
C8B C7B 1_555 1_555
H10B C8B 1_555 1_555
H11B C8B 1_555 1_555
H12B C8B 1_555 1_555
C9B C7B 1_555 1_555
H13B C9B 1_555 1_555
H14B C9B 1_555 1_555
H15B C9B 1_555 1_555
C10B C7B 1_555 1_555
H16B C10B 1_555 1_555
H17B C10B 1_555 1_555
H18B C10B 1_555 1_555
C4 C5 1_555 1_555
C2B C3B 1_555 1_555
C4B C5B 1_555 1_555

#END
