
#######################################################################
#
#                 Cambridge Crystallographic Data Centre
#                                CCDC 
#
#######################################################################
#
# If this CIF has been generated from an entry in the Cambridge 
# Structural Database, then it will include bibliographic, chemical, 
# crystal, experimental, refinement or atomic coordinate data resulting 
# from the CCDC's data processing and validation procedures.
#
#######################################################################

data_ZUNJEZ
_chemical_formula_moiety         'C18 H23 F5 N2 O5 S1'
_chemical_name_systematic        
'Ethyl 2-benzyl-5-(morpholin-4-ylcarbonyl)-4-(pentafluoro-\l^6^-sulfanyl)-1,2-oxazolidine-3-carboxylate'
_symmetry_cell_setting           monoclinic
_symmetry_space_group_name_H-M   'P 21/a'
_symmetry_Int_Tables_number      14
_space_group_name_Hall           '-P 2yab'
loop_
_symmetry_equiv_pos_site_id
_symmetry_equiv_pos_as_xyz
1 x,y,z
2 1/2-x,1/2+y,-z
3 -x,-y,-z
4 1/2+x,1/2-y,z
_cell_length_a                   10.5787(10)
_cell_length_b                   18.6470(18)
_cell_length_c                   11.4640(11)
_cell_angle_alpha                90
_cell_angle_beta                 109.42
_cell_angle_gamma                90
_cell_volume                     2132.74
_exptl_crystal_colour            colorless
_exptl_crystal_description       prism
_cell_formula_units_Z            4
loop_
_atom_site_label
_atom_site_type_symbol
_atom_site_fract_x
_atom_site_fract_y
_atom_site_fract_z
C1 C -0.4020(3) -0.05775(17) 0.4179(3)
H1 H -0.4467 -0.015 0.3783
H2 H -0.4644 -0.0876 0.4401
H3 H -0.3676 -0.0833 0.3623
C2 C -0.2908(3) -0.03826(14) 0.5300(3)
H4 H -0.325 -0.0102 0.5842
H5 H -0.2507 -0.0815 0.5739
C3 C -0.2118(2) 0.07249(12) 0.4778(2)
C4 C -0.0995(2) 0.10651(10) 0.44211(18)
H6 H -0.017 0.0781 0.4717
C5 C -0.0748(2) 0.18442(10) 0.48274(18)
H7 H -0.1612 0.2056 0.4778
C6 C -0.0304(2) 0.21846(10) 0.38060(18)
H8 H 0.062 0.2358 0.4158
C7 C -0.1336(2) 0.05019(11) 0.2396(2)
H9 H -0.1892 0.013 0.2565
H10 H -0.0414 0.0336 0.2684
C8 C -0.1771(2) 0.06391(12) 0.1028(2)
C9 C -0.0853(3) 0.07421(18) 0.0444(3)
H11 H 0.0056 0.0709 0.0894
C10 C -0.1251(5) 0.0894(2) -0.0804(3)
H12 H -0.0609 0.0965 -0.1184
C11 C -0.2576(5) 0.09421(19) -0.1484(3)
H13 H -0.2846 0.1044 -0.2326
C12 C -0.3502(4) 0.0837(2) -0.0904(3)
H14 H -0.4411 0.0876 -0.1352
C13 C -0.3097(3) 0.06757(18) 0.0335(3)
H15 H -0.3739 0.059 0.0708
C14 C -0.1238(2) 0.28105(10) 0.31999(19)
C15 C 0.0082(3) 0.29820(15) 0.1771(3)
H16 H 0.0507 0.2531 0.2107
H17 H 0.0756 0.3357 0.2006
C16 C -0.0492(3) 0.29342(17) 0.0393(3)
H18 H 0.0227 0.2853 0.006
H19 H -0.1097 0.2528 0.0167
C17 C -0.2264(3) 0.36825(17) 0.0313(2)
H20 H -0.2881 0.3281 0.0081
H21 H -0.2745 0.4111 -0.0067
C18 C -0.1792(3) 0.37664(14) 0.1685(2)
H22 H -0.1255 0.4198 0.1918
H23 H -0.2557 0.3812 0.1968
O1 O -0.21423(17) 0.29911(8) 0.35830(15)
O2 O -0.30821(19) 0.10400(10) 0.4831(2)
O3 O -0.18852(16) 0.00305(8) 0.49952(15)
O4 O -0.03624(15) 0.16154(7) 0.29607(13)
O5 O -0.1193(2) 0.35653(12) -0.01351(17)
S1 S 0.04071(7) 0.19880(3) 0.63920(5)
N1 N -0.0991(2) 0.31415(10) 0.22694(18)
N2 N -0.14460(17) 0.11587(8) 0.30645(15)
F1 F -0.0736(2) 0.22674(11) 0.68603(16)
F2 F 0.07066(19) 0.27737(9) 0.60780(15)
F3 F 0.1399(2) 0.21197(11) 0.77394(15)
F4 F 0.0175(2) 0.12062(9) 0.68248(14)
F5 F 0.16323(15) 0.17026(11) 0.60395(15)
loop_
_geom_bond_atom_site_label_1
_geom_bond_atom_site_label_2
_geom_bond_site_symmetry_1
_geom_bond_site_symmetry_2
C1 H1 1_555 1_555
H2 C1 1_555 1_555
H3 C1 1_555 1_555
C2 C1 1_555 1_555
H4 C2 1_555 1_555
H5 C2 1_555 1_555
C3 C4 1_555 1_555
C4 H6 1_555 1_555
C5 C4 1_555 1_555
H7 C5 1_555 1_555
C6 C5 1_555 1_555
H8 C6 1_555 1_555
C7 H9 1_555 1_555
H10 C7 1_555 1_555
C8 C7 1_555 1_555
C9 C8 1_555 1_555
H11 C9 1_555 1_555
C10 C9 1_555 1_555
H12 C10 1_555 1_555
C11 C10 1_555 1_555
H13 C11 1_555 1_555
C12 C11 1_555 1_555
H14 C12 1_555 1_555
C13 C8 1_555 1_555
H15 C13 1_555 1_555
C14 C6 1_555 1_555
C15 H16 1_555 1_555
H17 C15 1_555 1_555
C16 C15 1_555 1_555
H18 C16 1_555 1_555
H19 C16 1_555 1_555
C17 H20 1_555 1_555
H21 C17 1_555 1_555
C18 C17 1_555 1_555
H22 C18 1_555 1_555
H23 C18 1_555 1_555
O1 C14 1_555 1_555
O2 C3 1_555 1_555
O3 C2 1_555 1_555
O4 C6 1_555 1_555
O5 C16 1_555 1_555
S1 C5 1_555 1_555
N1 C14 1_555 1_555
N2 C4 1_555 1_555
F1 S1 1_555 1_555
F2 S1 1_555 1_555
F3 S1 1_555 1_555
F4 S1 1_555 1_555
F5 S1 1_555 1_555
C3 O3 1_555 1_555
C7 N2 1_555 1_555
C12 C13 1_555 1_555
C15 N1 1_555 1_555
C17 O5 1_555 1_555
C18 N1 1_555 1_555
O4 N2 1_555 1_555

#END
