
#######################################################################
#
#                 Cambridge Crystallographic Data Centre
#                                CCDC 
#
#######################################################################
#
# If this CIF has been generated from an entry in the Cambridge 
# Structural Database, then it will include bibliographic, chemical, 
# crystal, experimental, refinement or atomic coordinate data resulting 
# from the CCDC's data processing and validation procedures.
#
#######################################################################

data_ZUPSIO
_chemical_formula_moiety         'C23 H20 N2 O1'
_chemical_name_systematic        
2-(4-Methoxyphenyl)-1-methyl-4,5-diphenyl-1H-imidazole
_symmetry_cell_setting           orthorhombic
_symmetry_space_group_name_H-M   'P 21 21 21'
_symmetry_Int_Tables_number      19
_space_group_name_Hall           'P 2ac 2ab'
loop_
_symmetry_equiv_pos_site_id
_symmetry_equiv_pos_as_xyz
1 x,y,z
2 1/2-x,-y,1/2+z
3 -x,1/2+y,1/2-z
4 1/2+x,1/2-y,-z
_cell_length_a                   5.8187(8)
_cell_length_b                   9.6719(13)
_cell_length_c                   30.809(4)
_cell_angle_alpha                90
_cell_angle_beta                 90
_cell_angle_gamma                90
_cell_volume                     1733.87
_exptl_crystal_colour            colorless
_exptl_crystal_description       needle
_cell_formula_units_Z            4
loop_
_atom_site_label
_atom_site_type_symbol
_atom_site_fract_x
_atom_site_fract_y
_atom_site_fract_z
C1 C 1.6389(4) 0.2589(2) 0.15067(7)
H1 H 1.6439 0.1594 0.1566
H2 H 1.7663 0.2840 0.1314
H3 H 1.4927 0.2821 0.1367
C2 C 1.4933(4) 0.3152(2) 0.22088(7)
C3 C 1.2948(4) 0.2368(2) 0.21534(7)
H4 H 1.2708 0.1868 0.1892
C4 C 1.1325(4) 0.2324(2) 0.24827(7)
H5 H 0.9965 0.1795 0.2443
C5 C 1.1653(4) 0.3041(2) 0.28702(7)
C6 C 1.3688(4) 0.3795(2) 0.29189(7)
H6 H 1.3960 0.4282 0.3182
C7 C 1.5288(4) 0.3843(2) 0.25959(7)
H7 H 1.6662 0.4357 0.2637
C8 C 0.9970(4) 0.3133(2) 0.32242(7)
C9 C 0.8470(4) 0.0670(2) 0.32160(7)
H8 H 0.7403 0.0642 0.2970
H9 H 0.7909 0.0061 0.3447
H10 H 0.9992 0.0359 0.3121
C10 C 0.7435(4) 0.2605(2) 0.37317(7)
C11 C 0.8083(4) 0.3966(2) 0.37665(7)
C12 C 0.7259(4) 0.5054(2) 0.40616(7)
C13 C 0.5092(4) 0.5026(2) 0.42551(7)
H11 H 0.4096 0.4264 0.4206
C14 C 0.4386(4) 0.6103(2) 0.45188(7)
H12 H 0.2920 0.6064 0.4654
C15 C 0.5791(4) 0.7237(2) 0.45879(7)
H13 H 0.5284 0.7980 0.4765
C16 C 0.7945(4) 0.7278(2) 0.43958(7)
H14 H 0.8925 0.8050 0.4442
C17 C 0.8662(4) 0.6197(2) 0.41367(7)
H15 H 1.0142 0.6232 0.4007
C18 C 0.5901(4) 0.1793(2) 0.40163(7)
C19 C 0.3866(4) 0.1206(2) 0.38701(7)
H16 H 0.3506 0.1219 0.3569
C20 C 0.2367(4) 0.0606(2) 0.41601(8)
H17 H 0.0972 0.0212 0.4058
C21 C 0.2866(4) 0.0570(2) 0.45965(8)
H18 H 0.1796 0.0179 0.4795
C22 C 0.4919(4) 0.1101(2) 0.47470(8)
H19 H 0.5296 0.1043 0.5046
C23 C 0.6429(4) 0.1721(2) 0.44569(7)
H20 H 0.7834 0.2099 0.4560
N1 N 0.8630(3) 0.20892(17) 0.33802(5)
N2 N 0.9681(3) 0.42770(17) 0.34512(6)
O1 O 1.6587(3) 0.33310(15) 0.19025(5)
loop_
_geom_bond_atom_site_label_1
_geom_bond_atom_site_label_2
_geom_bond_site_symmetry_1
_geom_bond_site_symmetry_2
C1 H1 1_555 1_555
H2 C1 1_555 1_555
H3 C1 1_555 1_555
C2 C3 1_555 1_555
C3 H4 1_555 1_555
C4 C3 1_555 1_555
H5 C4 1_555 1_555
C5 C4 1_555 1_555
C6 C5 1_555 1_555
H6 C6 1_555 1_555
C7 C2 1_555 1_555
H7 C7 1_555 1_555
C8 C5 1_555 1_555
C9 H8 1_555 1_555
H9 C9 1_555 1_555
H10 C9 1_555 1_555
C10 C11 1_555 1_555
C11 C12 1_555 1_555
C12 C13 1_555 1_555
C13 H11 1_555 1_555
C14 C13 1_555 1_555
H12 C14 1_555 1_555
C15 C14 1_555 1_555
H13 C15 1_555 1_555
C16 C15 1_555 1_555
H14 C16 1_555 1_555
C17 C12 1_555 1_555
H15 C17 1_555 1_555
C18 C10 1_555 1_555
C19 C18 1_555 1_555
H16 C19 1_555 1_555
C20 C19 1_555 1_555
H17 C20 1_555 1_555
C21 C20 1_555 1_555
H18 C21 1_555 1_555
C22 C21 1_555 1_555
H19 C22 1_555 1_555
C23 C18 1_555 1_555
H20 C23 1_555 1_555
N1 C8 1_555 1_555
N2 C8 1_555 1_555
O1 C1 1_555 1_555
C2 O1 1_555 1_555
C6 C7 1_555 1_555
C9 N1 1_555 1_555
C10 N1 1_555 1_555
C11 N2 1_555 1_555
C16 C17 1_555 1_555
C22 C23 1_555 1_555

#END
