
#######################################################################
#
#                 Cambridge Crystallographic Data Centre
#                                CCDC 
#
#######################################################################
#
# If this CIF has been generated from an entry in the Cambridge 
# Structural Database, then it will include bibliographic, chemical, 
# crystal, experimental, refinement or atomic coordinate data resulting 
# from the CCDC's data processing and validation procedures.
#
#######################################################################

data_ZUPTOV
_chemical_formula_moiety         'C8 H3 Br1 S3'
_chemical_name_systematic        3-Bromobisthieno[2,3-b:3',4'-d]thiophene
_symmetry_cell_setting           monoclinic
_symmetry_space_group_name_H-M   'P 21/c'
_symmetry_Int_Tables_number      14
_space_group_name_Hall           '-P 2ybc'
loop_
_symmetry_equiv_pos_site_id
_symmetry_equiv_pos_as_xyz
1 x,y,z
2 -x,1/2+y,1/2-z
3 -x,-y,-z
4 x,1/2-y,1/2+z
_cell_length_a                   15.957(4)
_cell_length_b                   4.0031(10)
_cell_length_c                   15.819(4)
_cell_angle_alpha                90
_cell_angle_beta                 116.708(3)
_cell_angle_gamma                90
_cell_volume                     902.668
_exptl_crystal_colour            colorless
_exptl_crystal_description       block
_cell_formula_units_Z            4
loop_
_atom_site_label
_atom_site_type_symbol
_atom_site_fract_x
_atom_site_fract_y
_atom_site_fract_z
Br1 Br 0.44537(10) 0.7374(3) 0.05926(8)
S1 S 0.2970(3) 0.7045(6) 0.23444(18)
S2 S 0.1156(2) 0.3847(6) 0.07290(18)
S3 S 0.1237(3) 0.1393(7) -0.18624(18)
C1 C 0.3868(9) 0.780(2) 0.2054(7)
H1 H 0.4438 0.8766 0.2460
C2 C 0.3635(9) 0.679(2) 0.1144(7)
C3 C 0.2744(7) 0.539(2) 0.0684(6)
C4 C 0.2295(7) 0.540(2) 0.1243(6)
C5 C 0.1248(9) 0.298(2) -0.0321(6)
C6 C 0.2163(7) 0.3947(19) -0.0232(6)
C7 C 0.2252(9) 0.319(2) -0.1029(6)
H2 H 0.2786 0.3583 -0.1110
C8 C 0.0706(10) 0.159(3) -0.1125(7)
H3 H 0.0105 0.0798 -0.1283
loop_
_geom_bond_atom_site_label_1
_geom_bond_atom_site_label_2
_geom_bond_site_symmetry_1
_geom_bond_site_symmetry_2
Br1 C2 1_555 1_555
S1 C1 1_555 1_555
S2 C4 1_555 1_555
S3 C7 1_555 1_555
C1 H1 1_555 1_555
C2 C1 1_555 1_555
C3 C2 1_555 1_555
C4 S1 1_555 1_555
C5 S2 1_555 1_555
C6 C3 1_555 1_555
C7 C6 1_555 1_555
H2 C7 1_555 1_555
C8 S3 1_555 1_555
H3 C8 1_555 1_555
C3 C4 1_555 1_555
C5 C6 1_555 1_555
C5 C8 1_555 1_555

#END
