
#######################################################################
#
#                 Cambridge Crystallographic Data Centre
#                                CCDC 
#
#######################################################################
#
# If this CIF has been generated from an entry in the Cambridge 
# Structural Database, then it will include bibliographic, chemical, 
# crystal, experimental, refinement or atomic coordinate data resulting 
# from the CCDC's data processing and validation procedures.
#
#######################################################################

data_ZUQBEU
_chemical_formula_moiety         'C18 H15 Br1 N2 O1'
_chemical_name_systematic        
3-(4-bromophenyl)-1-phenyl-3-(1H-pyrazol-1-yl)propan-1-one
_symmetry_cell_setting           monoclinic
_symmetry_space_group_name_H-M   'P 21'
_symmetry_Int_Tables_number      4
_space_group_name_Hall           'P 2yb'
loop_
_symmetry_equiv_pos_site_id
_symmetry_equiv_pos_as_xyz
1 x,y,z
2 -x,1/2+y,-z
_cell_length_a                   5.0952(11)
_cell_length_b                   9.583(2)
_cell_length_c                   16.216(4)
_cell_angle_alpha                90
_cell_angle_beta                 96.743(6)
_cell_angle_gamma                90
_cell_volume                     786.307
_exptl_crystal_colour            colorless
_exptl_crystal_description       plate
_cell_formula_units_Z            2
loop_
_atom_site_label
_atom_site_type_symbol
_atom_site_fract_x
_atom_site_fract_y
_atom_site_fract_z
C1 C 0.0134(15) 0.5939(8) 0.3133(5)
O1 O -0.1985(10) 0.5393(5) 0.3222(3)
C2 C 0.1487(13) 0.6847(7) 0.3776(4)
C3 C 0.0613(15) 0.6916(8) 0.4549(5)
H1 H -0.0828 0.6347 0.4663
C4 C 0.1792(17) 0.7796(9) 0.5163(5)
H2 H 0.1154 0.7826 0.5690
C5 C 0.3896(15) 0.8632(10) 0.5008(5)
H3 H 0.4689 0.9248 0.5424
C6 C 0.4837(14) 0.8559(8) 0.4240(5)
H4 H 0.6294 0.9116 0.4127
C7 C 0.3638(15) 0.7672(7) 0.3644(5)
H5 H 0.4308 0.7621 0.3122
C8 C 0.1331(15) 0.5702(8) 0.2329(4)
H6 H 0.0940 0.6522 0.1964
H7 H 0.3275 0.5635 0.2457
C9 C 0.0329(13) 0.4405(7) 0.1863(4)
H8 H -0.1634 0.4497 0.1746
N1 N 0.0856(11) 0.3181(6) 0.2385(4)
N2 N -0.0817(12) 0.2068(7) 0.2295(4)
C10 C 0.2957(14) 0.2925(8) 0.2953(4)
H9 H 0.4403 0.3536 0.3104
C11 C 0.2622(16) 0.1630(8) 0.3270(5)
H10 H 0.3728 0.1165 0.3696
C12 C 0.0314(19) 0.1143(9) 0.2833(6)
H11 H -0.0390 0.0241 0.2910
C13 C 0.1399(12) 0.4237(7) 0.1027(4)
C14 C 0.3389(14) 0.3302(7) 0.0918(4)
H12 H 0.4099 0.2730 0.1368
C15 C 0.4360(14) 0.3191(7) 0.0158(5)
H13 H 0.5731 0.2545 0.0088
C16 C 0.3334(13) 0.4018(11) -0.0494(4)
Br1 Br 0.47069(17) 0.38865(13) -0.15256(5)
C17 C 0.1366(15) 0.4970(8) -0.0392(5)
H14 H 0.0674 0.5555 -0.0839
C18 C 0.0425(14) 0.5059(8) 0.0365(5)
H15 H -0.0941 0.5707 0.0434
loop_
_geom_bond_atom_site_label_1
_geom_bond_atom_site_label_2
_geom_bond_site_symmetry_1
_geom_bond_site_symmetry_2
C1 O1 1_555 1_555
C2 C1 1_555 1_555
C3 C2 1_555 1_555
H1 C3 1_555 1_555
C4 C3 1_555 1_555
H2 C4 1_555 1_555
C5 C4 1_555 1_555
H3 C5 1_555 1_555
C6 C5 1_555 1_555
H4 C6 1_555 1_555
C7 C2 1_555 1_555
H5 C7 1_555 1_555
C8 C1 1_555 1_555
H6 C8 1_555 1_555
H7 C8 1_555 1_555
C9 C8 1_555 1_555
H8 C9 1_555 1_555
N1 C9 1_555 1_555
N2 N1 1_555 1_555
C10 N1 1_555 1_555
H9 C10 1_555 1_555
C11 C10 1_555 1_555
H10 C11 1_555 1_555
C12 N2 1_555 1_555
H11 C12 1_555 1_555
C13 C9 1_555 1_555
C14 C13 1_555 1_555
H12 C14 1_555 1_555
C15 C14 1_555 1_555
H13 C15 1_555 1_555
C16 C15 1_555 1_555
Br1 C16 1_555 1_555
C17 C16 1_555 1_555
H14 C17 1_555 1_555
C18 C13 1_555 1_555
H15 C18 1_555 1_555
C6 C7 1_555 1_555
C11 C12 1_555 1_555
C17 C18 1_555 1_555

#END
