
#######################################################################
#
#                 Cambridge Crystallographic Data Centre
#                                CCDC 
#
#######################################################################
#
# If this CIF has been generated from an entry in the Cambridge 
# Structural Database, then it will include bibliographic, chemical, 
# crystal, experimental, refinement or atomic coordinate data resulting 
# from the CCDC's data processing and validation procedures.
#
#######################################################################

data_ZURBUL
_chemical_name_common            
(+-)-3-Bromo-2-([2.2]paracyclophan-4-yl)-1H-indole
_chemical_formula_moiety         'C24 H20 Br1 N1'
_chemical_name_systematic        
3-Bromo-2-(tricyclo[8.2.2.2^4,7^]hexadeca-1(12),4,6,10,13,15-hexaen-5-yl)-1H-indole
_symmetry_cell_setting           monoclinic
_symmetry_space_group_name_H-M   'C 2/c'
_symmetry_Int_Tables_number      15
_space_group_name_Hall           '-C 2yn'
loop_
_symmetry_equiv_pos_site_id
_symmetry_equiv_pos_as_xyz
1 x,y,z
2 -x,y,1/2-z
3 1/2+x,1/2+y,z
4 1/2-x,1/2+y,1/2-z
5 -x,-y,-z
6 x,-y,1/2+z
7 1/2-x,1/2-y,-z
8 1/2+x,1/2-y,1/2+z
_cell_length_a                   26.9755(6)
_cell_length_b                   9.1607(2)
_cell_length_c                   14.5320(10)
_cell_angle_alpha                90
_cell_angle_beta                 93.614(11)
_cell_angle_gamma                90
_cell_volume                     3583.93
_exptl_crystal_colour            colorless
_chemical_melting_point          '384-387 K'
_cell_formula_units_Z            8
_exptl_crystal_recrystallization_method 'deuterochloroform/diethyl ether'
loop_
_atom_site_label
_atom_site_type_symbol
_atom_site_fract_x
_atom_site_fract_y
_atom_site_fract_z
Br1 Br 0.17288(2) 0.12250(7) 0.90978(4)
N1 N 0.03234(16) 0.2845(5) 0.8870(3)
H1 H 0.0070(19) 0.332(5) 0.863(3)
C1 C 0.1122(2) 0.6900(7) 0.8301(4)
H2 H 0.1048 0.7888 0.8094
H3 H 0.1182 0.6927 0.8966
C2 C 0.06605(19) 0.5920(6) 0.8059(4)
H4 H 0.0556 0.5475 0.8620
H5 H 0.0390 0.6530 0.7810
C3 C 0.07534(17) 0.4731(5) 0.7372(4)
C4 C 0.08964(17) 0.3304(5) 0.7618(3)
C5 C 0.11986(18) 0.2520(5) 0.7044(3)
H6 H 0.1303 0.1588 0.7218
C6 C 0.13461(18) 0.3098(6) 0.6219(4)
C7 C 0.10989(18) 0.4346(6) 0.5887(4)
H7 H 0.1129 0.4645 0.5282
C8 C 0.08080(18) 0.5141(6) 0.6460(4)
H8 H 0.0645 0.5971 0.6230
C9 C 0.18166(19) 0.2563(6) 0.5807(4)
H9 H 0.1754 0.2452 0.5146
H10 H 0.1903 0.1611 0.6061
C10 C 0.2270(2) 0.3636(6) 0.6001(4)
H11 H 0.2561 0.3071 0.6206
H12 H 0.2342 0.4119 0.5431
C11 C 0.21775(17) 0.4770(6) 0.6714(4)
C12 C 0.21352(18) 0.4367(6) 0.7630(4)
H13 H 0.2306 0.3550 0.7861
C13 C 0.18436(18) 0.5161(6) 0.8205(4)
H14 H 0.1818 0.4868 0.8813
C14 C 0.15894(18) 0.6392(6) 0.7876(3)
C15 C 0.17230(19) 0.6964(6) 0.7052(4)
H15 H 0.1622 0.7903 0.6883
C16 C 0.20067(18) 0.6156(6) 0.6468(4)
H16 H 0.2083 0.6549 0.5905
C17 C 0.07859(18) 0.2663(5) 0.8515(4)
C18 C 0.10672(18) 0.1842(5) 0.9149(3)
C19 C 0.07756(17) 0.1482(5) 0.9906(3)
C20 C 0.08582(19) 0.0677(5) 1.0716(4)
H17 H 0.1165 0.0247 1.0864
C21 C 0.04749(19) 0.0531(5) 1.1293(4)
H18 H 0.0524 -0.0009 1.1833
C22 C 0.00132(18) 0.1180(5) 1.1080(3)
H19 H -0.0238 0.1066 1.1485
C23 C -0.00809(19) 0.1980(5) 1.0290(3)
H20 H -0.0391 0.2397 1.0146
C24 C 0.03104(18) 0.2140(5) 0.9711(3)
loop_
_geom_bond_atom_site_label_1
_geom_bond_atom_site_label_2
_geom_bond_site_symmetry_1
_geom_bond_site_symmetry_2
Br1 C18 1_555 1_555
N1 H1 1_555 1_555
C1 H2 1_555 1_555
H3 C1 1_555 1_555
C2 C1 1_555 1_555
H4 C2 1_555 1_555
H5 C2 1_555 1_555
C3 C2 1_555 1_555
C4 C3 1_555 1_555
C5 C4 1_555 1_555
H6 C5 1_555 1_555
C6 C5 1_555 1_555
C7 C6 1_555 1_555
H7 C7 1_555 1_555
C8 C3 1_555 1_555
H8 C8 1_555 1_555
C9 C6 1_555 1_555
H9 C9 1_555 1_555
H10 C9 1_555 1_555
C10 C9 1_555 1_555
H11 C10 1_555 1_555
H12 C10 1_555 1_555
C11 C10 1_555 1_555
C12 C11 1_555 1_555
H13 C12 1_555 1_555
C13 C12 1_555 1_555
H14 C13 1_555 1_555
C14 C1 1_555 1_555
C15 C14 1_555 1_555
H15 C15 1_555 1_555
C16 C11 1_555 1_555
H16 C16 1_555 1_555
C17 N1 1_555 1_555
C18 C17 1_555 1_555
C19 C18 1_555 1_555
C20 C19 1_555 1_555
H17 C20 1_555 1_555
C21 C20 1_555 1_555
H18 C21 1_555 1_555
C22 C21 1_555 1_555
H19 C22 1_555 1_555
C23 C22 1_555 1_555
H20 C23 1_555 1_555
C24 N1 1_555 1_555
C4 C17 1_555 1_555
C7 C8 1_555 1_555
C13 C14 1_555 1_555
C15 C16 1_555 1_555
C19 C24 1_555 1_555
C23 C24 1_555 1_555

#END
