
#######################################################################
#
#                 Cambridge Crystallographic Data Centre
#                                CCDC 
#
#######################################################################
#
# If this CIF has been generated from an entry in the Cambridge 
# Structural Database, then it will include bibliographic, chemical, 
# crystal, experimental, refinement or atomic coordinate data resulting 
# from the CCDC's data processing and validation procedures.
#
#######################################################################

data_ZURFID
_chemical_formula_moiety         'C35 H24'
_chemical_name_systematic        11-Methyl-9,14-diphenylbenzo[f]tetraphene
_symmetry_cell_setting           monoclinic
_symmetry_space_group_name_H-M   'P 21/c'
_symmetry_Int_Tables_number      14
_space_group_name_Hall           '-P 2ybc'
loop_
_symmetry_equiv_pos_site_id
_symmetry_equiv_pos_as_xyz
1 x,y,z
2 -x,1/2+y,1/2-z
3 -x,-y,-z
4 x,1/2-y,1/2+z
_cell_length_a                   10.2015(15)
_cell_length_b                   23.539(4)
_cell_length_c                   11.0114(17)
_cell_angle_alpha                90
_cell_angle_beta                 115.184(3)
_cell_angle_gamma                90
_cell_volume                     2392.86
_exptl_crystal_colour            colorless
_exptl_crystal_description       Block
_cell_formula_units_Z            4
loop_
_atom_site_label
_atom_site_type_symbol
_atom_site_fract_x
_atom_site_fract_y
_atom_site_fract_z
C1 C 0.0753(4) -0.06987(16) -0.1978(4)
H1 H 0.0168 -0.0929 -0.1683
H2 H 0.1184 -0.0933 -0.2422
H3 H 0.0158 -0.0415 -0.2590
C2 C 0.1863(4) -0.04301(16) -0.0849(3)
C3 C 0.2055(3) 0.01028(12) -0.0357(2)
H4 H 0.1325 0.0370 -0.0762
C4 C 0.3343(2) 0.02675(10) 0.0763(2)
C5 C 0.3616(2) 0.08386(9) 0.1223(2)
C6 C 0.4854(2) 0.09689(9) 0.2379(2)
C7 C 0.5429(2) 0.15493(9) 0.2747(2)
C8 C 0.5094(2) 0.19844(10) 0.1794(3)
H5 H 0.4440 0.1911 0.0913
C9 C 0.5695(3) 0.25136(10) 0.2112(3)
H6 H 0.5442 0.2794 0.1456
C10 C 0.6674(3) 0.26306(10) 0.3404(3)
H7 H 0.7062 0.2993 0.3634
C11 C 0.7072(3) 0.22110(10) 0.4346(3)
H8 H 0.7758 0.2290 0.5212
C12 C 0.6478(2) 0.16630(9) 0.4051(2)
C13 C 0.6940(2) 0.12131(9) 0.5051(2)
C14 C 0.7723(2) 0.13349(11) 0.6415(2)
H9 H 0.7964 0.1710 0.6680
C15 C 0.8142(3) 0.09203(13) 0.7368(2)
H10 H 0.8689 0.1010 0.8266
C16 C 0.7746(2) 0.03653(12) 0.6985(2)
H11 H 0.8005 0.0080 0.7630
C17 C 0.6969(2) 0.02342(10) 0.5651(2)
H12 H 0.6692 -0.0141 0.5411
C18 C 0.6582(2) 0.06469(9) 0.4645(2)
C19 C 0.5689(2) 0.05146(8) 0.3216(2)
C20 C 0.5551(2) -0.00314(9) 0.2682(2)
C21 C 0.4400(3) -0.01539(9) 0.1417(2)
C22 C 0.4185(3) -0.06960(11) 0.0811(3)
H13 H 0.4907 -0.0969 0.1178
C23 C 0.2966(5) -0.08318(14) -0.0282(3)
H14 H 0.2861 -0.1192 -0.0658
C24 C 0.2526(2) 0.12823(10) 0.0482(2)
C25 C 0.2186(2) 0.14164(11) -0.0846(2)
H15 H 0.2604 0.1210 -0.1311
C26 C 0.1238(3) 0.18497(12) -0.1482(3)
H16 H 0.1036 0.1939 -0.2367
C27 C 0.0594(3) 0.21491(12) -0.0831(4)
H17 H -0.0040 0.2444 -0.1264
C28 C 0.0884(3) 0.20139(12) 0.0469(3)
H18 H 0.0430 0.2213 0.0913
C29 C 0.1843(3) 0.15852(11) 0.1123(3)
H19 H 0.2033 0.1498 0.2007
C30 C 0.6640(2) -0.04811(9) 0.3378(2)
C31 C 0.8076(3) -0.03872(10) 0.3651(2)
H20 H 0.8339 -0.0048 0.3382
C32 C 0.9125(3) -0.07862(12) 0.4313(3)
H21 H 1.0085 -0.0715 0.4489
C33 C 0.8756(3) -0.12839(12) 0.4710(3)
H22 H 0.9464 -0.1553 0.5159
C34 C 0.7337(4) -0.13888(11) 0.4447(3)
H23 H 0.7088 -0.1731 0.4717
C35 C 0.6279(3) -0.09922(10) 0.3787(3)
H24 H 0.5320 -0.1067 0.3614
C36? C 0.2326(4) -0.13362(17) -0.1154(4)
H25? H 0.2939 -0.1664 -0.0840
H26? H 0.2198 -0.1248 -0.2049
H27? H 0.1400 -0.1413 -0.1156
H28? H 0.0997 -0.0531 -0.1565
loop_
_geom_bond_atom_site_label_1
_geom_bond_atom_site_label_2
_geom_bond_site_symmetry_1
_geom_bond_site_symmetry_2
C1 H1 1_555 1_555
H2 C1 1_555 1_555
H3 C1 1_555 1_555
C2 C1 1_555 1_555
C3 C2 1_555 1_555
H4 C3 1_555 1_555
C4 C3 1_555 1_555
C5 C4 1_555 1_555
C6 C5 1_555 1_555
C7 C6 1_555 1_555
C8 C7 1_555 1_555
H5 C8 1_555 1_555
C9 C8 1_555 1_555
H6 C9 1_555 1_555
C10 C9 1_555 1_555
H7 C10 1_555 1_555
C11 C10 1_555 1_555
H8 C11 1_555 1_555
C12 C7 1_555 1_555
C13 C12 1_555 1_555
C14 C13 1_555 1_555
H9 C14 1_555 1_555
C15 C14 1_555 1_555
H10 C15 1_555 1_555
C16 C15 1_555 1_555
H11 C16 1_555 1_555
C17 C16 1_555 1_555
H12 C17 1_555 1_555
C18 C13 1_555 1_555
C19 C6 1_555 1_555
C20 C19 1_555 1_555
C21 C4 1_555 1_555
C22 C21 1_555 1_555
H13 C22 1_555 1_555
C23 C2 1_555 1_555
H14 C23 1_555 1_555
C24 C5 1_555 1_555
C25 C24 1_555 1_555
H15 C25 1_555 1_555
C26 C25 1_555 1_555
H16 C26 1_555 1_555
C27 C26 1_555 1_555
H17 C27 1_555 1_555
C28 C27 1_555 1_555
H18 C28 1_555 1_555
C29 C24 1_555 1_555
H19 C29 1_555 1_555
C30 C20 1_555 1_555
C31 C30 1_555 1_555
H20 C31 1_555 1_555
C32 C31 1_555 1_555
H21 C32 1_555 1_555
C33 C32 1_555 1_555
H22 C33 1_555 1_555
C34 C33 1_555 1_555
H23 C34 1_555 1_555
C35 C30 1_555 1_555
H24 C35 1_555 1_555
C11 C12 1_555 1_555
C17 C18 1_555 1_555
C18 C19 1_555 1_555
C20 C21 1_555 1_555
C22 C23 1_555 1_555
C28 C29 1_555 1_555
C34 C35 1_555 1_555

#END
