
#######################################################################
#
#                 Cambridge Crystallographic Data Centre
#                                CCDC 
#
#######################################################################
#
# If this CIF has been generated from an entry in the Cambridge 
# Structural Database, then it will include bibliographic, chemical, 
# crystal, experimental, refinement or atomic coordinate data resulting 
# from the CCDC's data processing and validation procedures.
#
#######################################################################

data_ZUSFUQ
_chemical_formula_moiety         'C27 H16 N2 O5,C1 H2 Cl2'
_chemical_name_systematic        
"2'-nitro-12'-phenyl-2H,5H,5'H-spiro[cyclohex-3-ene-1,7'-isoindolo[2,1-b]isoquinoline]-2,5,5'-trione dichloromethane solvate"
_symmetry_cell_setting           triclinic
_symmetry_space_group_name_H-M   'P -1'
_symmetry_Int_Tables_number      2
_space_group_name_Hall           '-P 1'
loop_
_symmetry_equiv_pos_site_id
_symmetry_equiv_pos_as_xyz
1 x,y,z
2 -x,-y,-z
_cell_length_a                   10.069(2)
_cell_length_b                   10.870(2)
_cell_length_c                   12.021(2)
_cell_angle_alpha                71.67(3)
_cell_angle_beta                 82.11(3)
_cell_angle_gamma                82.87(3)
_cell_volume                     1232.53
_exptl_crystal_colour            yellow
_exptl_crystal_description       prism
_cell_formula_units_Z            2
loop_
_atom_site_label
_atom_site_type_symbol
_atom_site_fract_x
_atom_site_fract_y
_atom_site_fract_z
Cl1 Cl 0.54694(6) 0.71078(6) 0.19242(6)
Cl2 Cl 0.48900(7) 0.44720(7) 0.32891(8)
C1 C 0.5971(2) 0.5678(2) 0.3020(2)
H1 H 0.6888 0.5349 0.2770
H2 H 0.6008 0.5887 0.3759
O1 O 0.74110(13) 0.72426(12) 0.43884(12)
O2 O 0.89661(16) 0.68990(14) 0.20563(14)
O3 O 1.22858(19) 0.67105(19) 0.52283(18)
O4 O 0.14683(14) 1.12121(17) 0.36284(16)
O5 O 0.25676(16) 1.28685(16) 0.26436(18)
N1 N 0.85065(13) 0.88889(12) 0.30655(12)
N2 N 0.25165(16) 1.17127(17) 0.31839(15)
C2 C 0.73692(16) 0.83685(15) 0.37171(14)
C3 C 0.61303(16) 0.92601(15) 0.35544(14)
C4 C 0.49292(17) 0.87984(17) 0.41849(16)
H3 H 0.4929 0.7931 0.4696
C5 C 0.37398(18) 0.95925(18) 0.40727(16)
H4 H 0.2916 0.9284 0.4493
C6 C 0.37922(17) 1.08624(17) 0.33197(16)
C7 C 0.49496(17) 1.13651(16) 0.26953(15)
H5 H 0.4932 1.2244 0.2207
C8 C 0.61765(16) 1.05543(15) 0.27880(14)
C9 C 0.74372(16) 1.10084(15) 0.21355(14)
C10 C 0.85502(16) 1.01442(14) 0.22655(13)
C11 C 0.99390(16) 1.02199(16) 0.16909(14)
C12 C 1.05434(19) 1.12002(18) 0.07772(16)
H6 H 1.0035 1.1986 0.0410
C13 C 1.1904(2) 1.1001(2) 0.04166(18)
H7 H 1.2326 1.1659 -0.0206
C14 C 1.2655(2) 0.9861(2) 0.09497(19)
H8 H 1.3591 0.9765 0.0708
C15 C 1.20590(18) 0.88454(19) 0.18395(18)
H9 H 1.2565 0.8051 0.2187
C16 C 1.06933(16) 0.90495(15) 0.21937(14)
C17 C 0.98233(15) 0.81176(14) 0.31267(14)
C18 C 0.97418(17) 0.68922(16) 0.27415(16)
C19 C 1.0706(2) 0.57653(18) 0.3193(2)
H10 H 1.0774 0.5064 0.2871
C20 C 1.1486(2) 0.5676(2) 0.4028(2)
H11 H 1.2091 0.4922 0.4272
C21 C 1.14397(19) 0.6720(2) 0.45895(17)
C22 C 1.02907(18) 0.77625(18) 0.43643(16)
H12 H 1.0566 0.8555 0.4477
H13 H 0.9519 0.7468 0.4957
C23 C 0.75248(17) 1.23856(14) 0.13844(14)
C24 C 0.8290(2) 1.31837(18) 0.17062(17)
H14 H 0.8727 1.2853 0.2406
C25 C 0.8412(3) 1.4462(2) 0.1003(2)
H15 H 0.8932 1.5001 0.1226
C26 C 0.7785(3) 1.4950(2) -0.0012(2)
H16 H 0.7893 1.5817 -0.0498
C27 C 0.7007(3) 1.4189(2) -0.03233(19)
H17 H 0.6552 1.4539 -0.1012
C28 C 0.6878(2) 1.29059(18) 0.03644(16)
H18 H 0.6346 1.2381 0.0136
loop_
_geom_bond_atom_site_label_1
_geom_bond_atom_site_label_2
_geom_bond_site_symmetry_1
_geom_bond_site_symmetry_2
Cl1 C1 1_555 1_555
Cl2 C1 1_555 1_555
C1 H1 1_555 1_555
H2 C1 1_555 1_555
O1 C2 1_555 1_555
O2 C18 1_555 1_555
O3 C21 1_555 1_555
O4 N2 1_555 1_555
O5 N2 1_555 1_555
N1 C2 1_555 1_555
N2 C6 1_555 1_555
C2 C3 1_555 1_555
C3 C4 1_555 1_555
C4 H3 1_555 1_555
C5 C4 1_555 1_555
H4 C5 1_555 1_555
C6 C5 1_555 1_555
C7 C6 1_555 1_555
H5 C7 1_555 1_555
C8 C3 1_555 1_555
C9 C8 1_555 1_555
C10 N1 1_555 1_555
C11 C10 1_555 1_555
C12 C11 1_555 1_555
H6 C12 1_555 1_555
C13 C12 1_555 1_555
H7 C13 1_555 1_555
C14 C13 1_555 1_555
H8 C14 1_555 1_555
C15 C14 1_555 1_555
H9 C15 1_555 1_555
C16 C11 1_555 1_555
C17 N1 1_555 1_555
C18 C17 1_555 1_555
C19 C18 1_555 1_555
H10 C19 1_555 1_555
C20 C19 1_555 1_555
H11 C20 1_555 1_555
C21 C20 1_555 1_555
C22 C17 1_555 1_555
H12 C22 1_555 1_555
H13 C22 1_555 1_555
C23 C9 1_555 1_555
C24 C23 1_555 1_555
H14 C24 1_555 1_555
C25 C24 1_555 1_555
H15 C25 1_555 1_555
C26 C25 1_555 1_555
H16 C26 1_555 1_555
C27 C26 1_555 1_555
H17 C27 1_555 1_555
C28 C23 1_555 1_555
H18 C28 1_555 1_555
C7 C8 1_555 1_555
C9 C10 1_555 1_555
C15 C16 1_555 1_555
C16 C17 1_555 1_555
C21 C22 1_555 1_555
C27 C28 1_555 1_555

#END
