
#######################################################################
#
#                 Cambridge Crystallographic Data Centre
#                                CCDC 
#
#######################################################################
#
# If this CIF has been generated from an entry in the Cambridge 
# Structural Database, then it will include bibliographic, chemical, 
# crystal, experimental, refinement or atomic coordinate data resulting 
# from the CCDC's data processing and validation procedures.
#
#######################################################################

data_ZUSVOA
_chemical_formula_moiety         'C40 H41 N1 O3 S2,0.5(C6 H14)'
_chemical_name_systematic        
'3-(((4-t-Butylphenyl)sulfanyl)(4-methoxyphenyl)methyl)-1-((4-methylphenyl)sulfonyl)-2,4-diphenylazetidine n-hexane solvate'
_symmetry_cell_setting           orthorhombic
_symmetry_space_group_name_H-M   'P 21 21 21'
_symmetry_Int_Tables_number      19
_space_group_name_Hall           'P 2ac 2ab'
loop_
_symmetry_equiv_pos_site_id
_symmetry_equiv_pos_as_xyz
1 x,y,z
2 1/2-x,-y,1/2+z
3 1/2+x,1/2-y,-z
4 -x,1/2+y,1/2-z
_cell_length_a                   11.13642(7)
_cell_length_b                   14.74032(8)
_cell_length_c                   46.2616(3)
_cell_angle_alpha                90
_cell_angle_beta                 90
_cell_angle_gamma                90
_cell_volume                     7594.04
_exptl_crystal_colour            colorless
_exptl_crystal_description       block
_cell_formula_units_Z            8
loop_
_atom_site_label
_atom_site_type_symbol
_atom_site_fract_x
_atom_site_fract_y
_atom_site_fract_z
S1 S -0.34581(5) -0.48866(4) -0.593390(12)
S2 S -0.32034(5) -0.20372(4) -0.513128(13)
O1 O -0.41944(16) -0.15516(13) -0.50064(4)
O2 O -0.20156(16) -0.16626(13) -0.51189(4)
O3 O -0.94450(17) -0.45149(14) -0.58568(4)
N1 N -0.35339(19) -0.21501(13) -0.54749(4)
C1 C -0.3367(2) -0.59154(16) -0.57355(5)
C2 C -0.4414(2) -0.41777(16) -0.57020(5)
H1 H -0.4207 -0.4297 -0.5500
C3 C -0.4118(2) -0.31771(16) -0.57713(5)
H2 H -0.4279 -0.3024 -0.5974
C4 C -0.7724(2) -0.44972(16) -0.55297(5)
H3 H -0.8206 -0.4564 -0.5367
C5 C -0.6485(2) -0.44322(16) -0.55019(5)
H4 H -0.6143 -0.4456 -0.5319
C6 C -0.5744(2) -0.43334(16) -0.57415(5)
C7 C -0.2071(2) -0.23534(17) -0.58842(5)
C8 C -0.3155(2) -0.31422(18) -0.49867(5)
C9 C -0.6279(2) -0.43024(17) -0.60144(5)
H5 H -0.5799 -0.4234 -0.6178
C10 C -0.4744(2) -0.25067(16) -0.55570(5)
H6 H -0.5113 -0.2835 -0.5396
C11 C -0.5593(2) -0.18009(16) -0.56767(5)
C12 C -0.2891(2) -0.28088(16) -0.56666(5)
H7 H -0.2457 -0.3264 -0.5553
C13 C -0.2305(3) -0.64042(19) -0.57584(7)
H8 H -0.1673 -0.6177 -0.5868
C14 C -0.8235(2) -0.44614(17) -0.58029(6)
C15 C -0.2097(2) -0.3633(2) -0.49991(6)
H9 H -0.1394 -0.3359 -0.5064
C16 C -0.1609(2) -0.14918(18) -0.58357(6)
H10 H -0.1814 -0.1181 -0.5668
C17 C -0.7614(3) -0.1397(2) -0.58177(6)
H11 H -0.8417 -0.1554 -0.5841
C18 C -0.6801(2) -0.20285(17) -0.57097(5)
H12 H -0.7065 -0.2606 -0.5659
C19 C -0.3114(3) -0.76066(17) -0.54523(6)
C20 C -0.7505(2) -0.43711(18) -0.60456(5)
H13 H -0.7846 -0.4357 -0.6229
C21 C -0.3133(3) -0.4949(2) -0.48187(6)
C22 C -0.5210(2) -0.09405(17) -0.57544(6)
H14 H -0.4404 -0.0786 -0.5736
C23 C -0.4307(3) -0.62754(18) -0.55767(6)
H15 H -0.5032 -0.5964 -0.5564
C24 C -0.0536(3) -0.1531(2) -0.62876(6)
H16 H -0.0032 -0.1257 -0.6422
C25 C -0.4169(3) -0.71073(18) -0.54345(6)
H17 H -0.4802 -0.7332 -0.5325
C26 C -0.4201(2) -0.3543(2) -0.48842(6)
H18 H -0.4906 -0.3207 -0.4871
C27 C -0.6027(3) -0.03047(18) -0.58610(6)
H19 H -0.5769 0.0274 -0.5912
C28 C -0.4187(3) -0.4444(2) -0.48013(6)
H20 H -0.4887 -0.4715 -0.4733
C29 C -0.0840(3) -0.10886(19) -0.60358(7)
H21 H -0.0529 -0.0515 -0.5999
C30 C -0.7228(3) -0.05405(19) -0.58903(6)
H22 H -0.7775 -0.0116 -0.5960
C31 C -0.1753(3) -0.28035(18) -0.61378(6)
H23 H -0.2050 -0.3383 -0.6173
C32 C -0.2092(3) -0.4531(2) -0.49148(6)
H24 H -0.1380 -0.4860 -0.4923
C33 C -0.0999(3) -0.2396(2) -0.63372(6)
H25 H -0.0799 -0.2703 -0.6506
C34 C -0.2186(3) -0.72329(19) -0.56173(7)
H26 H -0.1466 -0.7549 -0.5633
C35 C -0.2480(4) -0.9230(2) -0.55154(8)
H27 H -0.3034 -0.9275 -0.5674
H28 H -0.2413 -0.9809 -0.5422
H29 H -0.1707 -0.9049 -0.5587
C36 C -0.2936(3) -0.85229(19) -0.52984(7)
C37 C -1.0226(3) -0.4517(2) -0.56113(7)
H30 H -1.1046 -0.4525 -0.5675
H31 H -1.0086 -0.3981 -0.5498
H32 H -1.0070 -0.5044 -0.5496
C38 C -0.3120(4) -0.5936(2) -0.47306(8)
H33 H -0.3858 -0.6082 -0.4634
H34 H -0.2457 -0.6044 -0.4603
H35 H -0.3038 -0.6309 -0.4900
C39 C -0.1986(4) -0.8418(2) -0.50608(8)
H36 H -0.1263 -0.8173 -0.5143
H37 H -0.1819 -0.9000 -0.4977
H38 H -0.2280 -0.8014 -0.4914
C40 C -0.4078(3) -0.8872(2) -0.51667(8)
H39 H -0.4328 -0.8473 -0.5014
H40 H -0.3944 -0.9468 -0.5090
H41 H -0.4692 -0.8899 -0.5312
S3 S -0.36283(6) -0.42632(4) -0.741079(12)
S4 S -0.71703(6) -0.57678(4) -0.670134(13)
O4 O -0.3949(2) -0.33310(13) -0.74524(4)
N2 N -0.38401(19) -0.44761(14) -0.70649(4)
O5 O -0.3743(2) -0.92001(13) -0.62500(4)
O6 O -0.24503(18) -0.45842(13) -0.74780(4)
C41 C -0.5655(2) -0.61144(17) -0.68209(5)
H42 H -0.5689 -0.6236 -0.7029
C42 C -0.4692(2) -0.49252(18) -0.75967(5)
C43 C -0.4795(2) -0.53230(16) -0.67716(5)
H43 H -0.4659 -0.5209 -0.6565
C44 C -0.8104(2) -0.62517(18) -0.69717(6)
C45 C -0.4467(3) -0.30978(17) -0.66308(5)
H44 H -0.3676 -0.3299 -0.6638
C46 C -0.5285(3) -0.63463(19) -0.78060(6)
H45 H -0.5090 -0.6927 -0.7869
C47 C -0.6462(3) -0.60388(19) -0.78307(6)
C48 C -0.4899(3) -0.77211(18) -0.68317(6)
H46 H -0.5020 -0.7723 -0.7031
C49 C -0.5198(2) -0.69544(17) -0.66726(5)
C50 C -0.2444(2) -0.54843(18) -0.67720(5)
C51 C -0.4747(3) -0.23206(18) -0.64764(6)
H47 H -0.4142 -0.2000 -0.6383
C52 C -0.4221(3) -0.84861(18) -0.64020(6)
C53 C -0.3594(2) -0.53947(16) -0.69426(5)
H48 H -0.3646 -0.5862 -0.7093
C54 C -0.5358(3) -0.35794(17) -0.67754(5)
C55 C -0.5077(2) -0.44358(16) -0.69395(5)
H49 H -0.5683 -0.4546 -0.7089
C56 C -0.4417(3) -0.84943(18) -0.66975(6)
H50 H -0.4231 -0.9006 -0.6806
C57 C -0.4995(3) -0.69693(18) -0.63733(6)
H51 H -0.5194 -0.6464 -0.6263
C58 C -0.4401(2) -0.57985(18) -0.76886(5)
H52 H -0.3619 -0.6012 -0.7671
C59 C -0.1734(2) -0.47541(19) -0.66968(6)
H53 H -0.1924 -0.4178 -0.6765
C60 C -0.0734(3) -0.4871(2) -0.65195(7)
H54 H -0.0271 -0.4373 -0.6467
C61 C -0.9039(2) -0.57309(19) -0.70780(6)
H55 H -0.9108 -0.5128 -0.7021
C62 C -0.9871(3) -0.6089(2) -0.72676(7)
H56 H -1.0513 -0.5735 -0.7329
C63 C -0.4508(3) -0.77174(19) -0.62396(6)
H57 H -0.4370 -0.7711 -0.6041
C64 C -0.5861(3) -0.46022(18) -0.76255(6)
H58 H -0.6054 -0.4016 -0.7567
C65 C -0.6737(3) -0.5166(2) -0.77421(6)
H59 H -0.7520 -0.4954 -0.7761
C66 C -0.6541(3) -0.32732(19) -0.67595(6)
H60 H -0.7146 -0.3585 -0.6856
C67 C -0.5926(3) -0.2018(2) -0.64608(6)
H61 H -0.6112 -0.1495 -0.6358
C68 C -0.9758(3) -0.6978(3) -0.73680(7)
C69 C -0.0431(3) -0.5725(3) -0.64214(7)
H62 H 0.0236 -0.5803 -0.6303
C70 C -0.3461(3) -0.9991(2) -0.64071(7)
H63 H -0.2844 -0.9857 -0.6546
H64 H -0.4165 -1.0203 -0.6506
H65 H -0.3182 -1.0452 -0.6277
C71 C -0.7977(3) -0.7127(2) -0.70733(7)
H66 H -0.7340 -0.7482 -0.7010
C72 C -0.2125(3) -0.6349(2) -0.66725(6)
H67 H -0.2589 -0.6849 -0.6723
C73 C -0.1121(3) -0.6463(2) -0.64993(7)
H68 H -0.0912 -0.7039 -0.6435
C74 C -0.6819(3) -0.2499(2) -0.65992(6)
H69 H -0.7612 -0.2307 -0.6586
C75 C -0.8791(3) -0.7479(2) -0.72696(8)
H70 H -0.8686 -0.8069 -0.7337
C76 C -0.7428(3) -0.6645(2) -0.79562(7)
H71 H -0.7396 -0.6620 -0.8163
H72 H -0.8201 -0.6441 -0.7891
H73 H -0.7300 -0.7258 -0.7893
C77 C -1.0709(3) -0.7354(3) -0.75784(9)
C78 C -1.1881(3) -0.7454(3) -0.74230(10)
H74 H -1.2494 -0.7625 -0.7558
H75 H -1.2091 -0.6887 -0.7334
H76 H -1.1808 -0.7914 -0.7277
C79 C -1.0985(4) -0.6621(4) -0.78265(10)
H77 H -1.1244 -0.6063 -0.7739
H78 H -1.1607 -0.6847 -0.7951
H79 H -1.0271 -0.6514 -0.7938
C80 C -1.0267(4) -0.8147(3) -0.77463(12)
H80 H -1.0221 -0.8668 -0.7622
H81 H -0.9484 -0.8015 -0.7822
H82 H -1.0809 -0.8270 -0.7903
C81 C -0.3672(7) -0.7021(4) -0.39074(13)
H83 H -0.3981 -0.6561 -0.4038
H84 H -0.4348 -0.7338 -0.3822
C82 C -0.2863(6) -0.7704(4) -0.40775(13)
H85 H -0.2200 -0.7391 -0.4170
H86 H -0.2543 -0.8165 -0.3949
C83 C -0.2917(7) -0.6578(4) -0.36713(12)
H87 H -0.2584 -0.7048 -0.3548
H88 H -0.2253 -0.6257 -0.3760
C84 C -0.2731(9) -0.5401(5) -0.32866(15)
H89 H -0.2258 -0.5830 -0.3180
H90 H -0.3171 -0.5025 -0.3154
H91 H -0.2213 -0.5030 -0.3403
C85 C -0.3630(8) -0.5921(4) -0.34862(14)
H92 H -0.4210 -0.6249 -0.3370
H93 H -0.4060 -0.5495 -0.3608
C86 C -0.3651(8) -0.8106(5) -0.42915(18)
H94 H -0.4291 -0.8423 -0.4196
H95 H -0.3204 -0.8525 -0.4408
H96 H -0.3980 -0.7638 -0.4412
loop_
_geom_bond_atom_site_label_1
_geom_bond_atom_site_label_2
_geom_bond_site_symmetry_1
_geom_bond_site_symmetry_2
S1 C1 1_555 1_555
S2 O1 1_555 1_555
O2 S2 1_555 1_555
O3 C14 1_555 1_555
N1 S2 1_555 1_555
C1 C13 1_555 1_555
C2 S1 1_555 1_555
H1 C2 1_555 1_555
C3 C2 1_555 1_555
H2 C3 1_555 1_555
C4 H3 1_555 1_555
C5 C4 1_555 1_555
H4 C5 1_555 1_555
C6 C2 1_555 1_555
C7 C12 1_555 1_555
C8 S2 1_555 1_555
C9 C6 1_555 1_555
H5 C9 1_555 1_555
C10 N1 1_555 1_555
H6 C10 1_555 1_555
C11 C10 1_555 1_555
C12 N1 1_555 1_555
H7 C12 1_555 1_555
C13 H8 1_555 1_555
C14 C4 1_555 1_555
C15 C8 1_555 1_555
H9 C15 1_555 1_555
C16 C7 1_555 1_555
H10 C16 1_555 1_555
C17 H11 1_555 1_555
C18 C11 1_555 1_555
H12 C18 1_555 1_555
C19 C25 1_555 1_555
C20 C9 1_555 1_555
H13 C20 1_555 1_555
C21 C28 1_555 1_555
C22 C11 1_555 1_555
H14 C22 1_555 1_555
C23 C1 1_555 1_555
H15 C23 1_555 1_555
C24 H16 1_555 1_555
C25 C23 1_555 1_555
H17 C25 1_555 1_555
C26 C8 1_555 1_555
H18 C26 1_555 1_555
C27 C22 1_555 1_555
H19 C27 1_555 1_555
C28 C26 1_555 1_555
H20 C28 1_555 1_555
C29 C16 1_555 1_555
H21 C29 1_555 1_555
C30 C17 1_555 1_555
H22 C30 1_555 1_555
C31 C7 1_555 1_555
H23 C31 1_555 1_555
C32 C15 1_555 1_555
H24 C32 1_555 1_555
C33 C24 1_555 1_555
H25 C33 1_555 1_555
C34 C13 1_555 1_555
H26 C34 1_555 1_555
C35 H27 1_555 1_555
H28 C35 1_555 1_555
H29 C35 1_555 1_555
C36 C19 1_555 1_555
C37 O3 1_555 1_555
H30 C37 1_555 1_555
H31 C37 1_555 1_555
H32 C37 1_555 1_555
C38 C21 1_555 1_555
H33 C38 1_555 1_555
H34 C38 1_555 1_555
H35 C38 1_555 1_555
C39 C36 1_555 1_555
H36 C39 1_555 1_555
H37 C39 1_555 1_555
H38 C39 1_555 1_555
C40 C36 1_555 1_555
H39 C40 1_555 1_555
H40 C40 1_555 1_555
H41 C40 1_555 1_555
S3 O4 1_555 1_555
S4 C41 1_555 1_555
N2 S3 1_555 1_555
O5 C52 1_555 1_555
O6 S3 1_555 1_555
C41 H42 1_555 1_555
C42 S3 1_555 1_555
C43 C41 1_555 1_555
H43 C43 1_555 1_555
C44 S4 1_555 1_555
C45 H44 1_555 1_555
C46 H45 1_555 1_555
C47 C46 1_555 1_555
C48 H46 1_555 1_555
C49 C41 1_555 1_555
C50 C53 1_555 1_555
C51 C45 1_555 1_555
H47 C51 1_555 1_555
C52 C56 1_555 1_555
C53 N2 1_555 1_555
H48 C53 1_555 1_555
C54 C45 1_555 1_555
C55 N2 1_555 1_555
H49 C55 1_555 1_555
C56 C48 1_555 1_555
H50 C56 1_555 1_555
C57 C49 1_555 1_555
H51 C57 1_555 1_555
C58 C42 1_555 1_555
H52 C58 1_555 1_555
C59 C50 1_555 1_555
H53 C59 1_555 1_555
C60 C59 1_555 1_555
H54 C60 1_555 1_555
C61 C44 1_555 1_555
H55 C61 1_555 1_555
C62 C61 1_555 1_555
H56 C62 1_555 1_555
C63 C52 1_555 1_555
H57 C63 1_555 1_555
C64 C42 1_555 1_555
H58 C64 1_555 1_555
C65 C47 1_555 1_555
H59 C65 1_555 1_555
C66 C54 1_555 1_555
H60 C66 1_555 1_555
C67 C51 1_555 1_555
H61 C67 1_555 1_555
C68 C62 1_555 1_555
C69 C60 1_555 1_555
H62 C69 1_555 1_555
C70 O5 1_555 1_555
H63 C70 1_555 1_555
H64 C70 1_555 1_555
H65 C70 1_555 1_555
C71 C44 1_555 1_555
H66 C71 1_555 1_555
C72 C50 1_555 1_555
H67 C72 1_555 1_555
C73 C69 1_555 1_555
H68 C73 1_555 1_555
C74 C66 1_555 1_555
H69 C74 1_555 1_555
C75 C68 1_555 1_555
H70 C75 1_555 1_555
C76 C47 1_555 1_555
H71 C76 1_555 1_555
H72 C76 1_555 1_555
H73 C76 1_555 1_555
C77 C68 1_555 1_555
C78 C77 1_555 1_555
H74 C78 1_555 1_555
H75 C78 1_555 1_555
H76 C78 1_555 1_555
C79 C77 1_555 1_555
H77 C79 1_555 1_555
H78 C79 1_555 1_555
H79 C79 1_555 1_555
C80 C77 1_555 1_555
H80 C80 1_555 1_555
H81 C80 1_555 1_555
H82 C80 1_555 1_555
C81 H83 1_555 1_555
H84 C81 1_555 1_555
C82 C81 1_555 1_555
H85 C82 1_555 1_555
H86 C82 1_555 1_555
C83 C81 1_555 1_555
H87 C83 1_555 1_555
H88 C83 1_555 1_555
C84 H89 1_555 1_555
H90 C84 1_555 1_555
H91 C84 1_555 1_555
C85 C83 1_555 1_555
H92 C85 1_555 1_555
H93 C85 1_555 1_555
C86 C82 1_555 1_555
H94 C86 1_555 1_555
H95 C86 1_555 1_555
H96 C86 1_555 1_555
C3 C10 1_555 1_555
C3 C12 1_555 1_555
C5 C6 1_555 1_555
C14 C20 1_555 1_555
C17 C18 1_555 1_555
C19 C34 1_555 1_555
C21 C32 1_555 1_555
C24 C29 1_555 1_555
C27 C30 1_555 1_555
C31 C33 1_555 1_555
C35 C36 1_555 1_555
C43 C53 1_555 1_555
C43 C55 1_555 1_555
C46 C58 1_555 1_555
C48 C49 1_555 1_555
C54 C55 1_555 1_555
C57 C63 1_555 1_555
C64 C65 1_555 1_555
C67 C74 1_555 1_555
C71 C75 1_555 1_555
C72 C73 1_555 1_555
C84 C85 1_555 1_555

#END
