
#######################################################################
#
#                 Cambridge Crystallographic Data Centre
#                                CCDC 
#
#######################################################################
#
# If this CIF has been generated from an entry in the Cambridge 
# Structural Database, then it will include bibliographic, chemical, 
# crystal, experimental, refinement or atomic coordinate data resulting 
# from the CCDC's data processing and validation procedures.
#
#######################################################################

data_ZUTPOV
_chemical_formula_moiety         'C53 H54'
_chemical_name_systematic        
5,5,10,10,15,15-hexaethyl-2,7-bis(2-methylphenyl)-10,15-dihydro-5H-diindeno[1,2-a:1',2'-c]fluorene
_symmetry_cell_setting           triclinic
_symmetry_space_group_name_H-M   'P -1'
_symmetry_Int_Tables_number      2
_space_group_name_Hall           '-P 1'
loop_
_symmetry_equiv_pos_site_id
_symmetry_equiv_pos_as_xyz
1 x,y,z
2 -x,-y,-z
_cell_length_a                   7.2660(10)
_cell_length_b                   13.252(2)
_cell_length_c                   20.996(4)
_cell_angle_alpha                87.033(3)
_cell_angle_beta                 87.610(3)
_cell_angle_gamma                81.525(3)
_cell_volume                     1995.74
_cell_formula_units_Z            2
loop_
_atom_site_label
_atom_site_type_symbol
_atom_site_fract_x
_atom_site_fract_y
_atom_site_fract_z
C1 C 0.1139(5) 0.0333(3) 0.72195(16)
C2 C 0.2143(5) 0.1980(3) 0.69376(16)
C3 C 0.3324(6) 0.3925(3) 0.56094(18)
H1 H 0.3752 0.4550 0.5539
C4 C 0.1433(5) 0.1106(3) 0.67544(16)
C5 C 0.1673(5) 0.0403(3) 0.78472(17)
C6 C 0.3400(6) 0.2558(3) 0.85666(16)
C7 C 0.2906(5) 0.1584(3) 0.86577(16)
C8 C 0.1246(5) 0.1125(3) 0.60365(16)
C9 C 0.0528(5) -0.0687(3) 0.71716(18)
C10 C 0.2461(5) 0.2621(3) 0.63508(16)
C11 C 0.2011(5) 0.2090(3) 0.58345(16)
C12 C 0.3310(5) 0.2942(3) 0.78814(16)
C13 C 0.3096(5) 0.3549(3) 0.62266(17)
H2 H 0.3370 0.3923 0.6564
C14 C 0.2528(5) 0.2079(3) 0.75759(16)
C15 C 0.1627(5) -0.0615(3) 0.82323(17)
C16 C 0.2264(6) 0.2476(3) 0.52075(17)
H3 H 0.1978 0.2109 0.4868
C17 C 0.2933(6) 0.3393(3) 0.50862(16)
C18 C -0.0305(6) -0.1132(3) 0.66868(18)
H4 H -0.0599 -0.0765 0.6306
C19 C 0.0537(6) -0.2239(3) 0.7820(2)
H5 H 0.0841 -0.2608 0.8200
C20 C 0.3038(7) 0.1129(3) 0.92616(19)
H6 H 0.2715 0.0478 0.9334
C21 C -0.0234(7) -0.2685(3) 0.7343(2)
H7 H -0.0455 -0.3359 0.7394
C22 C 0.0865(5) -0.1230(3) 0.77367(17)
C23 C -0.0681(7) -0.2113(4) 0.6781(2)
H8 H -0.1249 -0.2404 0.6461
C24 C 0.4116(7) 0.2580(3) 0.96765(19)
C25 C 0.2307(5) 0.1283(3) 0.80335(16)
C26 C 0.3640(7) 0.1614(3) 0.97625(19)
H9 H 0.3726 0.1284 1.0164
C27 C 0.2033(6) 0.3972(3) 0.78196(18)
H10 H 0.2614 0.4479 0.8023
H11 H 0.1944 0.4176 0.7370
C28 C 0.5322(6) 0.3022(3) 0.76327(19)
H12 H 0.5288 0.3230 0.7183
H13 H 0.5777 0.3555 0.7855
C29 C 0.3192(7) 0.3804(3) 0.44212(19)
C30 C 0.4014(6) 0.3058(3) 0.90648(18)
H14 H 0.4355 0.3704 0.8993
C31 C 0.2451(6) 0.0206(3) 0.57341(18)
H15 H 0.1929 -0.0408 0.5864
H16 H 0.2389 0.0294 0.5274
C32 C 0.3616(6) -0.1104(3) 0.8399(2)
H17 H 0.3563 -0.1769 0.8609
H18 H 0.4096 -0.0683 0.8699
C33 C 0.0360(7) -0.0597(4) 0.8836(2)
H19 H 0.0715 -0.0994 0.9201
C34 C -0.0790(6) 0.1232(3) 0.5824(2)
H20 H -0.0783 0.1207 0.5363
H21 H -0.1341 0.0652 0.6003
C35 C 0.4636(9) 0.3117(4) 1.0241(2)
C36 C 0.4879(9) 0.3880(5) 0.3423(2)
H22 H 0.5923 0.3668 0.3166
C37 C 0.6651(12) 0.3993(4) 1.0831(3)
H23 H 0.7768 0.4251 1.0854
C38 C 0.1803(9) 0.4535(4) 0.4153(2)
H24 H 0.0753 0.4760 0.4405
C39 C 0.4490(6) 0.0057(4) 0.5913(2)
H25 H 0.5005 0.0674 0.5807
H26 H 0.5170 -0.0492 0.5680
H27 H 0.4579 -0.0104 0.6362
C40 C 0.3468(11) 0.4578(5) 0.3194(3)
H28 H 0.3567 0.4830 0.2774
C41 C 0.3279(9) 0.3234(4) 1.0784(2)
H29 H 0.2131 0.3010 1.0761
C42 C 0.6172(9) 0.3498(4) 1.0263(2)
C43 C 0.4981(7) -0.1234(4) 0.7815(2)
H30 H 0.4593 -0.1710 0.7537
H31 H 0.6211 -0.1487 0.7956
H32 H 0.4988 -0.0587 0.7588
C44 C -0.1990(7) 0.2192(4) 0.6018(2)
H33 H -0.1461 0.2458 0.6374
H34 H -0.3217 0.2046 0.6137
H35 H -0.2062 0.2688 0.5667
C45 C 0.6677(7) 0.2062(4) 0.7711(3)
H36 H 0.6789 0.1871 0.8156
H37 H 0.7870 0.2174 0.7530
H38 H 0.6241 0.1525 0.7496
C46 C 0.5420(12) 0.4048(5) 1.1296(4)
H39 H 0.5690 0.4372 1.1656
C47 C 0.3710(11) 0.3664(5) 1.1309(3)
H40 H 0.2914 0.3708 1.1668
C48 C 0.1914(10) 0.4926(4) 0.3552(3)
H41 H 0.0976 0.5411 0.3388
C49 C 0.4732(8) 0.3491(4) 0.4048(2)
C50 C 0.6302(10) 0.2794(5) 0.4312(3)
H42 H 0.6933 0.3148 0.4603
H43 H 0.7152 0.2555 0.3971
H44 H 0.5850 0.2223 0.4533
C51 C 0.7629(9) 0.3394(5) 0.9761(3)
H45 H 0.7864 0.2698 0.9637
H46 H 0.8748 0.3584 0.9916
H47 H 0.7233 0.3832 0.9399
C52 C -0.1390(9) 0.0056(5) 0.8814(3)
H48 H -0.1181 0.0755 0.8771
H49 H -0.2105 -0.0048 0.9201
H50 H -0.2059 -0.0101 0.8456
C53 C 0.0102(7) 0.3985(4) 0.8102(3)
H51 H -0.0514 0.3509 0.7892
H52 H -0.0582 0.4659 0.8046
H53 H 0.0165 0.3796 0.8549
loop_
_geom_bond_atom_site_label_1
_geom_bond_atom_site_label_2
_geom_bond_site_symmetry_1
_geom_bond_site_symmetry_2
C1 C4 1_555 1_555
C2 C4 1_555 1_555
C3 H1 1_555 1_555
C4 C8 1_555 1_555
C5 C1 1_555 1_555
C6 C7 1_555 1_555
C7 C20 1_555 1_555
C8 C11 1_555 1_555
C9 C1 1_555 1_555
C10 C2 1_555 1_555
C11 C10 1_555 1_555
C12 C6 1_555 1_555
C13 C3 1_555 1_555
H2 C13 1_555 1_555
C14 C2 1_555 1_555
C15 C5 1_555 1_555
C16 C11 1_555 1_555
H3 C16 1_555 1_555
C17 C3 1_555 1_555
C18 C9 1_555 1_555
H4 C18 1_555 1_555
C19 H5 1_555 1_555
C20 H6 1_555 1_555
C21 C19 1_555 1_555
H7 C21 1_555 1_555
C22 C9 1_555 1_555
C23 C18 1_555 1_555
H8 C23 1_555 1_555
C24 C26 1_555 1_555
C25 C5 1_555 1_555
C26 C20 1_555 1_555
H9 C26 1_555 1_555
C27 C12 1_555 1_555
H10 C27 1_555 1_555
H11 C27 1_555 1_555
C28 C12 1_555 1_555
H12 C28 1_555 1_555
H13 C28 1_555 1_555
C29 C17 1_555 1_555
C30 C6 1_555 1_555
H14 C30 1_555 1_555
C31 C8 1_555 1_555
H15 C31 1_555 1_555
H16 C31 1_555 1_555
C32 C15 1_555 1_555
H17 C32 1_555 1_555
H18 C32 1_555 1_555
C33 C15 1_555 1_555
H19 C33 1_555 1_555
C34 C8 1_555 1_555
H20 C34 1_555 1_555
H21 C34 1_555 1_555
C35 C24 1_555 1_555
C36 H22 1_555 1_555
C37 H23 1_555 1_555
C38 C29 1_555 1_555
H24 C38 1_555 1_555
C39 C31 1_555 1_555
H25 C39 1_555 1_555
H26 C39 1_555 1_555
H27 C39 1_555 1_555
C40 C36 1_555 1_555
H28 C40 1_555 1_555
C41 C35 1_555 1_555
H29 C41 1_555 1_555
C42 C35 1_555 1_555
C43 C32 1_555 1_555
H30 C43 1_555 1_555
H31 C43 1_555 1_555
H32 C43 1_555 1_555
C44 C34 1_555 1_555
H33 C44 1_555 1_555
H34 C44 1_555 1_555
H35 C44 1_555 1_555
C45 C28 1_555 1_555
H36 C45 1_555 1_555
H37 C45 1_555 1_555
H38 C45 1_555 1_555
C46 C37 1_555 1_555
H39 C46 1_555 1_555
C47 C41 1_555 1_555
H40 C47 1_555 1_555
C48 C38 1_555 1_555
H41 C48 1_555 1_555
C49 C29 1_555 1_555
C50 C49 1_555 1_555
H42 C50 1_555 1_555
H43 C50 1_555 1_555
H44 C50 1_555 1_555
C51 C42 1_555 1_555
H45 C51 1_555 1_555
H46 C51 1_555 1_555
H47 C51 1_555 1_555
C52 C33 1_555 1_555
H48 C52 1_555 1_555
H49 C52 1_555 1_555
H50 C52 1_555 1_555
C53 C27 1_555 1_555
H51 C53 1_555 1_555
H52 C53 1_555 1_555
H53 C53 1_555 1_555
C7 C25 1_555 1_555
C10 C13 1_555 1_555
C12 C14 1_555 1_555
C14 C25 1_555 1_555
C15 C22 1_555 1_555
C16 C17 1_555 1_555
C19 C22 1_555 1_555
C21 C23 1_555 1_555
C24 C30 1_555 1_555
C36 C49 1_555 1_555
C37 C42 1_555 1_555
C40 C48 1_555 1_555
C46 C47 1_555 1_555

#END
