
#######################################################################
#
#                 Cambridge Crystallographic Data Centre
#                                CCDC 
#
#######################################################################
#
# If this CIF has been generated from an entry in the Cambridge 
# Structural Database, then it will include bibliographic, chemical, 
# crystal, experimental, refinement or atomic coordinate data resulting 
# from the CCDC's data processing and validation procedures.
#
#######################################################################

data_ZUTSAK
_chemical_formula_moiety         'C16 H22 O8'
_chemical_name_systematic        
"dimethyl 1'H,4'H-dispiro[1,3-dioxolane-2,2'-bicyclo[2.2.2]octane-5',2''-[1,3]dioxolane]-1',4'-dicarboxylate"
_symmetry_cell_setting           triclinic
_symmetry_space_group_name_H-M   'P -1'
_symmetry_Int_Tables_number      2
_space_group_name_Hall           '-P 1'
loop_
_symmetry_equiv_pos_site_id
_symmetry_equiv_pos_as_xyz
1 x,y,z
2 -x,-y,-z
_cell_length_a                   7.910(1)
_cell_length_b                   9.810(1)
_cell_length_c                   11.543(1)
_cell_angle_alpha                94.38(1)
_cell_angle_beta                 104.37(1)
_cell_angle_gamma                111.57(1)
_cell_volume                     792.826
_exptl_crystal_colour            colorless
_exptl_crystal_description       blocks
_cell_formula_units_Z            2
loop_
_atom_site_label
_atom_site_type_symbol
_atom_site_fract_x
_atom_site_fract_y
_atom_site_fract_z
C1 C 0.1923(3) 0.6093(3) 0.7364(2)
C2 C 0.0080(4) 0.4720(3) 0.6694(2)
H1 H -0.0993 0.5009 0.6535
H2 H 0.0168 0.4346 0.5919
C3 C -0.0248(4) 0.3488(3) 0.7455(2)
C4 C 0.1681(4) 0.3746(3) 0.8371(2)
C5 C 0.3141(4) 0.4093(3) 0.7652(2)
H3 H 0.4306 0.4051 0.8138
H4 H 0.2640 0.3346 0.6915
C6 C 0.3581(3) 0.5642(3) 0.7316(2)
C7 C 0.1996(4) 0.6409(3) 0.8714(2)
H5 H 0.3054 0.7346 0.9125
H6 H 0.0829 0.6491 0.8762
C8 C 0.2237(4) 0.5141(3) 0.9336(2)
H7 H 0.1437 0.4900 0.9870
H8 H 0.3551 0.5456 0.9827
C9 C 0.2068(4) 0.7489(3) 0.6844(3)
O1 O 0.3491(4) 0.8469(3) 0.6820(3)
O2 O 0.0385(3) 0.7573(2) 0.6454(2)
C10 C 0.0373(5) 0.8901(4) 0.6002(3)
H9 H -0.0903 0.8853 0.5775
H10 H 0.0834 0.8972 0.5305
H11 H 0.1180 0.9761 0.6626
C11 C 0.1516(4) 0.2421(3) 0.8989(3)
O3 O 0.0523(4) 0.2011(3) 0.9635(2)
O4 O 0.2643(3) 0.1761(2) 0.87705(19)
C12 C 0.2614(5) 0.0519(3) 0.9373(3)
H12 H 0.3409 0.0090 0.9124
H13 H 0.1333 -0.0220 0.9157
H14 H 0.3081 0.0861 1.0238
O5 O -0.1616(3) 0.3486(2) 0.80543(17)
C13 C -0.3148(8) 0.2034(7) 0.7756(6)
H15 H -0.4366 0.2101 0.7667
H16 H -0.2947 0.1433 0.8363
C14 C -0.3014(8) 0.1408(7) 0.6527(6)
H17 H -0.3504 0.0327 0.6384
H18 H -0.3704 0.1719 0.5855
O6 O -0.1004(3) 0.2058(2) 0.66907(18)
O7 O 0.5308(2) 0.6715(2) 0.81313(16)
C15 C 0.6758(4) 0.6862(4) 0.7565(3)
H19 H 0.7287 0.6125 0.7742
H20 H 0.7775 0.7850 0.7833
C16 C 0.5731(4) 0.6599(4) 0.6239(3)
H21 H 0.5749 0.7524 0.5986
H22 H 0.6298 0.6156 0.5749
O8 O 0.3832(3) 0.5592(2) 0.61348(16)
C17? C -0.3386(9) 0.2344(8) 0.7329(9)
H23? H -0.3990 0.2693 0.6646
H24? H -0.4254 0.1981 0.7808
C18? C -0.2754(10) 0.1146(7) 0.6905(9)
H25? H -0.2539 0.0571 0.7531
H26? H -0.3672 0.0478 0.6167
loop_
_geom_bond_atom_site_label_1
_geom_bond_atom_site_label_2
_geom_bond_site_symmetry_1
_geom_bond_site_symmetry_2
C1 C2 1_555 1_555
C2 H1 1_555 1_555
H2 C2 1_555 1_555
C3 C2 1_555 1_555
C4 C3 1_555 1_555
C5 C4 1_555 1_555
H3 C5 1_555 1_555
H4 C5 1_555 1_555
C6 C1 1_555 1_555
C7 C1 1_555 1_555
H5 C7 1_555 1_555
H6 C7 1_555 1_555
C8 C4 1_555 1_555
H7 C8 1_555 1_555
H8 C8 1_555 1_555
C9 C1 1_555 1_555
O1 C9 1_555 1_555
O2 C9 1_555 1_555
C10 O2 1_555 1_555
H9 C10 1_555 1_555
H10 C10 1_555 1_555
H11 C10 1_555 1_555
C11 C4 1_555 1_555
O3 C11 1_555 1_555
O4 C11 1_555 1_555
C12 O4 1_555 1_555
H12 C12 1_555 1_555
H13 C12 1_555 1_555
H14 C12 1_555 1_555
O5 C3 1_555 1_555
C13 O5 1_555 1_555
H15 C13 1_555 1_555
H16 C13 1_555 1_555
C14 C13 1_555 1_555
H17 C14 1_555 1_555
H18 C14 1_555 1_555
O6 C3 1_555 1_555
O7 C6 1_555 1_555
C15 O7 1_555 1_555
H19 C15 1_555 1_555
H20 C15 1_555 1_555
C16 C15 1_555 1_555
H21 C16 1_555 1_555
H22 C16 1_555 1_555
O8 C6 1_555 1_555
C5 C6 1_555 1_555
C7 C8 1_555 1_555
C14 O6 1_555 1_555
C16 O8 1_555 1_555

#END
