
#######################################################################
#
#                 Cambridge Crystallographic Data Centre
#                                CCDC 
#
#######################################################################
#
# If this CIF has been generated from an entry in the Cambridge 
# Structural Database, then it will include bibliographic, chemical, 
# crystal, experimental, refinement or atomic coordinate data resulting 
# from the CCDC's data processing and validation procedures.
#
#######################################################################

data_ZUVSEQ
_chemical_formula_moiety         'C25 H18 N2 S2'
_chemical_name_systematic        
N,N-diphenyl-4-(5-(2-thienyl)-1,3-thiazol-2-yl)aniline
_symmetry_cell_setting           triclinic
_symmetry_space_group_name_H-M   'P -1'
_symmetry_Int_Tables_number      2
_space_group_name_Hall           '-P 1'
loop_
_symmetry_equiv_pos_site_id
_symmetry_equiv_pos_as_xyz
1 x,y,z
2 -x,-y,-z
_cell_length_a                   10.3933(10)
_cell_length_b                   12.6851(12)
_cell_length_c                   16.6669(16)
_cell_angle_alpha                97.372(2)
_cell_angle_beta                 105.3350(10)
_cell_angle_gamma                98.675(2)
_cell_volume                     2062.03
_exptl_crystal_colour            yellow
_exptl_crystal_description       block
_cell_formula_units_Z            4
loop_
_atom_site_label
_atom_site_type_symbol
_atom_site_fract_x
_atom_site_fract_y
_atom_site_fract_z
C1 C 0.8002(3) 0.7451(2) 0.43457(16)
C2 C 0.7401(3) 0.8280(2) 0.46198(17)
H1 H 0.7132 0.8772 0.4271
C3 C 0.7205(3) 0.8373(3) 0.54103(18)
H2 H 0.6822 0.8939 0.5595
C4 C 0.7563(4) 0.7651(3) 0.5922(2)
H3 H 0.7409 0.7714 0.6450
C5 C 0.8151(4) 0.6831(3) 0.5657(2)
H4 H 0.8405 0.6337 0.6007
C6 C 0.8370(3) 0.6734(2) 0.48644(19)
H5 H 0.8771 0.6175 0.4688
C7 C 0.8195(3) 0.6282(2) 0.31047(17)
C8 C 0.7001(3) 0.5555(2) 0.2735(2)
H6 H 0.6179 0.5744 0.2757
C9 C 0.7019(4) 0.4541(3) 0.2329(2)
H7 H 0.6207 0.4049 0.2076
C10 C 0.8207(4) 0.4256(3) 0.2296(2)
H8 H 0.8210 0.3572 0.2020
C11 C 0.9413(4) 0.4978(3) 0.2672(2)
H9 H 1.0232 0.4778 0.2656
C12 C 0.9405(3) 0.5998(2) 0.30706(18)
H10 H 1.0218 0.6492 0.3316
C13 C 0.8403(3) 0.8219(2) 0.31166(16)
C14 C 0.7893(3) 0.8086(2) 0.22376(17)
H11 H 0.7373 0.7423 0.1933
C15 C 0.8148(3) 0.8916(2) 0.18215(16)
H12 H 0.7804 0.8805 0.1236
C16 C 0.8905(3) 0.9920(2) 0.22482(16)
C17 C 0.9396(3) 1.0056(2) 0.31175(17)
H13 H 0.9902 1.0724 0.3420
C18 C 0.9152(3) 0.9224(2) 0.35481(17)
H14 H 0.9493 0.9339 0.4134
C19 C 0.9249(3) 1.0792(2) 0.18023(16)
C20 C 1.0097(3) 1.2392(2) 0.15996(18)
H15 H 1.0522 1.3117 0.1767
C21 C 0.9696(3) 1.19215(19) 0.07872(17)
C22 C 0.9808(3) 1.2385(2) 0.00532(17)
C23 C 0.9402(3) 1.1919(2) -0.07842(17)
H16 H 0.8981 1.1197 -0.0986
C24 C 0.9695(3) 1.2653(3) -0.13038(19)
H17 H 0.9490 1.2464 -0.1888
C25 C 1.0292(4) 1.3638(3) -0.0884(2)
H18 H 1.0555 1.4214 -0.1136
N1 N 0.8185(3) 0.73428(18) 0.35232(14)
N2 N 0.9859(3) 1.17672(19) 0.21770(15)
S1 S 0.89499(8) 1.05881(5) 0.07162(4)
S2 S 1.05205(11) 1.37273(6) 0.01758(5)
C26 C 0.6784(3) 0.2492(2) 0.54343(17)
C27 C 0.6331(4) 0.1474(3) 0.49271(19)
H19 H 0.5837 0.0916 0.5098
C28 C 0.6630(5) 0.1302(4) 0.4158(2)
H20 H 0.6341 0.0619 0.3820
C29 C 0.7330(5) 0.2106(4) 0.3892(2)
H21 H 0.7519 0.1976 0.3377
C30 C 0.7756(4) 0.3105(4) 0.4384(2)
H22 H 0.8223 0.3662 0.4198
C31 C 0.7502(3) 0.3304(3) 0.51586(18)
H23 H 0.7818 0.3987 0.5494
C32 C 0.6293(3) 0.3742(2) 0.65164(16)
C33 C 0.5451(3) 0.4261(2) 0.59882(18)
H24 H 0.4972 0.3913 0.5441
C34 C 0.5316(4) 0.5295(3) 0.6267(2)
H25 H 0.4764 0.5650 0.5902
C35 C 0.5991(4) 0.5809(3) 0.7080(2)
H26 H 0.5907 0.6512 0.7263
C36 C 0.6780(3) 0.5284(3) 0.7618(2)
H27 H 0.7210 0.5622 0.8174
C37 C 0.6949(3) 0.4255(2) 0.73441(18)
H28 H 0.7501 0.3905 0.7713
C38 C 0.6401(3) 0.1874(2) 0.67201(16)
C39 C 0.5448(3) 0.1820(2) 0.71684(17)
H29 H 0.4861 0.2309 0.7127
C40 C 0.5364(3) 0.1046(2) 0.76759(16)
H30 H 0.4725 0.1024 0.7976
C41 C 0.6220(3) 0.0302(2) 0.77424(15)
C42 C 0.7163(3) 0.0359(2) 0.72879(16)
H31 H 0.7745 -0.0134 0.7324
C43 C 0.7255(3) 0.1133(2) 0.67840(17)
H32 H 0.7896 0.1156 0.6485
C44 C 0.6156(3) -0.0518(2) 0.82822(16)
C45 C 0.6751(3) -0.1791(3) 0.8992(2)
H33 H 0.7312 -0.2265 0.9187
C46 C 0.5604(3) -0.1757(2) 0.92095(16)
C47 C 0.5027(3) -0.2392(2) 0.97247(17)
C48 C 0.3870(19) -0.2256(19) 0.9951(11)
H34 H 0.3278 -0.1789 0.9793
C49 C 0.3626(4) -0.3132(3) 1.0500(2)
H35 H 0.2942 -0.3221 1.0764
C50 C 0.4575(4) -0.3716(3) 1.0587(2)
H36 H 0.4589 -0.4268 1.0905
N3 N 0.6500(2) 0.26926(18) 0.62244(14)
N4 N 0.7073(3) -0.1104(2) 0.84706(17)
S3 S 0.48570(9) -0.07804(7) 0.87375(5)
S4 S 0.5671(4) -0.3437(4) 1.0074(3)
S5? S 0.3644(11) -0.2299(11) 0.9972(6)
C51? C 0.5722(17) -0.322(2) 1.0205(19)
H37? H 0.6579 -0.3387 1.0254
loop_
_geom_bond_atom_site_label_1
_geom_bond_atom_site_label_2
_geom_bond_site_symmetry_1
_geom_bond_site_symmetry_2
C1 C2 1_555 1_555
C2 H1 1_555 1_555
C3 C2 1_555 1_555
H2 C3 1_555 1_555
C4 C3 1_555 1_555
H3 C4 1_555 1_555
C5 C4 1_555 1_555
H4 C5 1_555 1_555
C6 C1 1_555 1_555
H5 C6 1_555 1_555
C7 C8 1_555 1_555
C8 H6 1_555 1_555
C9 C8 1_555 1_555
H7 C9 1_555 1_555
C10 C9 1_555 1_555
H8 C10 1_555 1_555
C11 C10 1_555 1_555
H9 C11 1_555 1_555
C12 C7 1_555 1_555
H10 C12 1_555 1_555
C13 C14 1_555 1_555
C14 H11 1_555 1_555
C15 C14 1_555 1_555
H12 C15 1_555 1_555
C16 C15 1_555 1_555
C17 C16 1_555 1_555
H13 C17 1_555 1_555
C18 C13 1_555 1_555
H14 C18 1_555 1_555
C19 C16 1_555 1_555
C20 H15 1_555 1_555
C21 C20 1_555 1_555
C22 C21 1_555 1_555
C23 C22 1_555 1_555
H16 C23 1_555 1_555
C24 C23 1_555 1_555
H17 C24 1_555 1_555
C25 C24 1_555 1_555
H18 C25 1_555 1_555
N1 C1 1_555 1_555
N2 C19 1_555 1_555
S1 C19 1_555 1_555
S2 C22 1_555 1_555
C26 C27 1_555 1_555
C27 H19 1_555 1_555
C28 C27 1_555 1_555
H20 C28 1_555 1_555
C29 C28 1_555 1_555
H21 C29 1_555 1_555
C30 C29 1_555 1_555
H22 C30 1_555 1_555
C31 C26 1_555 1_555
H23 C31 1_555 1_555
C32 C33 1_555 1_555
C33 H24 1_555 1_555
C34 C33 1_555 1_555
H25 C34 1_555 1_555
C35 C34 1_555 1_555
H26 C35 1_555 1_555
C36 C35 1_555 1_555
H27 C36 1_555 1_555
C37 C32 1_555 1_555
H28 C37 1_555 1_555
C38 C39 1_555 1_555
C39 H29 1_555 1_555
C40 C39 1_555 1_555
H30 C40 1_555 1_555
C41 C40 1_555 1_555
C42 C41 1_555 1_555
H31 C42 1_555 1_555
C43 C38 1_555 1_555
H32 C43 1_555 1_555
C44 C41 1_555 1_555
C45 H33 1_555 1_555
C46 C45 1_555 1_555
C47 C46 1_555 1_555
C48 C47 1_555 1_555
H34 C48 1_555 1_555
C49 C48 1_555 1_555
H35 C49 1_555 1_555
C50 C49 1_555 1_555
H36 C50 1_555 1_555
N3 C26 1_555 1_555
N4 C44 1_555 1_555
S3 C44 1_555 1_555
S4 C47 1_555 1_555
C5 C6 1_555 1_555
C7 N1 1_555 1_555
C11 C12 1_555 1_555
C13 N1 1_555 1_555
C17 C18 1_555 1_555
C20 N2 1_555 1_555
C21 S1 1_555 1_555
C25 S2 1_555 1_555
C30 C31 1_555 1_555
C32 N3 1_555 1_555
C36 C37 1_555 1_555
C38 N3 1_555 1_555
C42 C43 1_555 1_555
C45 N4 1_555 1_555
C46 S3 1_555 1_555
C50 S4 1_555 1_555

#END
