
#######################################################################
#
#                 Cambridge Crystallographic Data Centre
#                                CCDC 
#
#######################################################################
#
# If this CIF has been generated from an entry in the Cambridge 
# Structural Database, then it will include bibliographic, chemical, 
# crystal, experimental, refinement or atomic coordinate data resulting 
# from the CCDC's data processing and validation procedures.
#
#######################################################################

data_ZUVTOB
_chemical_formula_moiety         'C41 H46 O8'
_chemical_name_systematic        
'6-(13-(benzoyloxy)-10,14-dimethyl-7-oxo-16,17-dioxapentacyclo[13.2.2.0^1,14^.0^2,11^.0^5,10^]nonadec-18-en-15-yl)-2-methyl-5-oxohept-1-en-4-yl benzoate'
_symmetry_cell_setting           monoclinic
_symmetry_space_group_name_H-M   'P 21'
_symmetry_Int_Tables_number      4
_space_group_name_Hall           'P 2yb'
loop_
_symmetry_equiv_pos_site_id
_symmetry_equiv_pos_as_xyz
1 x,y,z
2 -x,1/2+y,-z
_cell_length_a                   5.99080(10)
_cell_length_b                   21.9862(6)
_cell_length_c                   13.1580(4)
_cell_angle_alpha                90
_cell_angle_beta                 94.8749(10)
_cell_angle_gamma                90
_cell_volume                     1726.84
_exptl_crystal_description       needle
_cell_formula_units_Z            2
loop_
_atom_site_label
_atom_site_type_symbol
_atom_site_fract_x
_atom_site_fract_y
_atom_site_fract_z
O1 O 0.4650(3) 0.10137(8) -0.24431(13)
O2 O 0.7636(2) 0.12090(7) 0.33013(11)
O3 O 0.9052(2) 0.14730(7) 0.41806(11)
O4 O 0.5893(2) 0.26387(8) 0.62537(11)
O5 O 0.7918(2) 0.30617(6) 0.31514(10)
O6 O 1.0574(2) 0.30519(7) 0.20353(11)
O7 O 0.7938(3) 0.35930(7) 0.71444(11)
O8 O 0.9349(3) 0.29506(9) 0.83597(13)
C1 C 0.5595(4) 0.20003(10) -0.03586(16)
C2 C 0.4585(4) 0.19225(11) -0.14676(17)
C3 C 0.4042(4) 0.12729(11) -0.16955(17)
C4 C 0.2729(4) 0.09497(11) -0.09322(17)
C5 C 0.3769(4) 0.10491(10) 0.01729(16)
C6 C 0.2480(5) 0.07148(12) 0.09520(19)
C7 C 0.3680(5) 0.07665(12) 0.20241(18)
C8 C 0.4145(3) 0.14310(10) 0.23223(15)
C9 C 0.5399(3) 0.17613(10) 0.15089(15)
C10 C 0.4124(3) 0.17297(10) 0.04315(16)
C11 C 0.6016(3) 0.24109(9) 0.18562(15)
C12 C 0.7401(3) 0.24256(9) 0.28823(15)
C13 C 0.6110(3) 0.21451(10) 0.37222(15)
C14 C 0.5417(3) 0.14961(10) 0.33644(15)
C15 C 0.4570(4) 0.12232(10) 0.43155(16)
C16 C 0.5828(3) 0.14538(10) 0.51028(16)
C17 C 0.7508(3) 0.18781(9) 0.46740(16)
C18 C 0.4156(3) 0.25475(10) 0.39711(16)
C19 C 0.1911(4) 0.20830(13) 0.03919(18)
C20 C 0.9027(3) 0.22724(10) 0.53960(16)
C21 C 1.0487(4) 0.18833(11) 0.61709(17)
C22 C 0.7791(3) 0.27207(10) 0.60212(15)
C23 C 0.9120(4) 0.32813(10) 0.63930(16)
C24 C 0.9303(4) 0.37362(10) 0.55276(16)
C25 C 1.0816(4) 0.42689(11) 0.58049(18)
C26 C 1.3102(4) 0.42261(14) 0.5539(2)
C27 C 1.0002(5) 0.47642(13) 0.6266(2)
C28 C 0.9500(3) 0.33262(10) 0.26207(15)
C29 C 0.9810(4) 0.39814(10) 0.28523(16)
C30 C 1.1799(4) 0.42451(12) 0.2588(2)
C31 C 1.2192(5) 0.48565(13) 0.2768(2)
C32 C 1.0624(6) 0.51995(13) 0.3200(2)
C33 C 0.8638(5) 0.49500(12) 0.3454(2)
C34 C 0.8216(4) 0.43312(11) 0.32824(17)
C35 C 0.8144(4) 0.33715(11) 0.81042(16)
C36 C 0.6708(4) 0.37099(11) 0.87708(17)
C37 C 0.7294(4) 0.37236(12) 0.98144(18)
C38 C 0.5955(5) 0.40359(14) 1.0445(2)
C39 C 0.4038(5) 0.43274(15) 1.0045(2)
C40 C 0.3434(5) 0.43135(15) 0.9012(2)
C41 C 0.4782(4) 0.40106(13) 0.83688(19)
H1 H 0.5294 0.0861 0.0210
H2 H 0.2665 0.1637 0.2352
H3 H 0.6843 0.1539 0.1464
H4 H 0.8828 0.2196 0.2830
H5 H 0.3374 0.0942 0.4344
H6 H 0.5698 0.1369 0.5803
H7 H 0.7084 0.1802 -0.0283
H8 H 0.5819 0.2439 -0.0215
H9 H 1.0047 0.2508 0.4978
H10 H 1.0647 0.3160 0.6691
H11 H 0.3206 0.2170 -0.1577
H12 H 0.5666 0.2071 -0.1940
H13 H 0.2690 0.0509 -0.1086
H14 H 0.1168 0.1102 -0.0993
H15 H 0.2331 0.0281 0.0759
H16 H 0.0956 0.0889 0.0951
H17 H 0.2743 0.0578 0.2523
H18 H 0.5115 0.0541 0.2048
H19 H 0.6874 0.2608 0.1336
H20 H 0.4624 0.2648 0.1907
H21 H 1.2881 0.4005 0.2286
H22 H 1.3546 0.5037 0.2591
H23 H 1.0910 0.5619 0.3329
H24 H 0.7558 0.5197 0.3744
H25 H 0.6856 0.4154 0.3459
H26 H 0.4680 0.2967 0.4075
H27 H 0.3548 0.2399 0.4593
H28 H 0.2985 0.2535 0.3404
H29 H 0.2226 0.2519 0.0460
H30 H 0.1047 0.1950 0.0951
H31 H 0.1046 0.2006 -0.0261
H32 H 1.1664 0.2138 0.6514
H33 H 1.1174 0.1550 0.5812
H34 H 0.9550 0.1715 0.6678
H35 H 0.8604 0.3520 1.0094
H36 H 0.6359 0.4050 1.1159
H37 H 0.3129 0.4539 1.0485
H38 H 0.2102 0.4510 0.8741
H39 H 0.4391 0.4008 0.7654
H40 H 0.9869 0.3521 0.4940
H41 H 0.7787 0.3891 0.5308
H42 H 1.3962 0.4574 0.5827
H43 H 1.3121 0.4228 0.4795
H44 H 1.3774 0.3848 0.5815
H45 H 1.0948 0.5103 0.6429
H46 H 0.8485 0.4772 0.6427
loop_
_geom_bond_atom_site_label_1
_geom_bond_atom_site_label_2
_geom_bond_site_symmetry_1
_geom_bond_site_symmetry_2
O1 C3 1_555 1_555
O2 O3 1_555 1_555
O3 C17 1_555 1_555
O4 C22 1_555 1_555
O5 C12 1_555 1_555
O6 C28 1_555 1_555
O7 C23 1_555 1_555
O8 C35 1_555 1_555
C1 C2 1_555 1_555
C2 C3 1_555 1_555
C3 C4 1_555 1_555
C4 C5 1_555 1_555
C5 C6 1_555 1_555
C6 C7 1_555 1_555
C7 C8 1_555 1_555
C8 C9 1_555 1_555
C9 C10 1_555 1_555
C10 C1 1_555 1_555
C11 C9 1_555 1_555
C12 C11 1_555 1_555
C13 C12 1_555 1_555
C14 O2 1_555 1_555
C15 C14 1_555 1_555
C16 C15 1_555 1_555
C17 C13 1_555 1_555
C18 C13 1_555 1_555
C19 C10 1_555 1_555
C20 C17 1_555 1_555
C21 C20 1_555 1_555
C22 C20 1_555 1_555
C23 C22 1_555 1_555
C24 C23 1_555 1_555
C25 C24 1_555 1_555
C26 C25 1_555 1_555
C27 C25 1_555 1_555
C28 O5 1_555 1_555
C29 C28 1_555 1_555
C30 C29 1_555 1_555
C31 C30 1_555 1_555
C32 C31 1_555 1_555
C33 C32 1_555 1_555
C34 C29 1_555 1_555
C35 O7 1_555 1_555
C36 C35 1_555 1_555
C37 C36 1_555 1_555
C38 C37 1_555 1_555
C39 C38 1_555 1_555
C40 C39 1_555 1_555
C41 C36 1_555 1_555
H1 C5 1_555 1_555
H2 C8 1_555 1_555
H3 C9 1_555 1_555
H4 C12 1_555 1_555
H5 C15 1_555 1_555
H6 C16 1_555 1_555
H7 C1 1_555 1_555
H8 C1 1_555 1_555
H9 C20 1_555 1_555
H10 C23 1_555 1_555
H11 C2 1_555 1_555
H12 C2 1_555 1_555
H13 C4 1_555 1_555
H14 C4 1_555 1_555
H15 C6 1_555 1_555
H16 C6 1_555 1_555
H17 C7 1_555 1_555
H18 C7 1_555 1_555
H19 C11 1_555 1_555
H20 C11 1_555 1_555
H21 C30 1_555 1_555
H22 C31 1_555 1_555
H23 C32 1_555 1_555
H24 C33 1_555 1_555
H25 C34 1_555 1_555
H26 C18 1_555 1_555
H27 C18 1_555 1_555
H28 C18 1_555 1_555
H29 C19 1_555 1_555
H30 C19 1_555 1_555
H31 C19 1_555 1_555
H32 C21 1_555 1_555
H33 C21 1_555 1_555
H34 C21 1_555 1_555
H35 C37 1_555 1_555
H36 C38 1_555 1_555
H37 C39 1_555 1_555
H38 C40 1_555 1_555
H39 C41 1_555 1_555
H40 C24 1_555 1_555
H41 C24 1_555 1_555
H42 C26 1_555 1_555
H43 C26 1_555 1_555
H44 C26 1_555 1_555
H45 C27 1_555 1_555
H46 C27 1_555 1_555
C5 C10 1_555 1_555
C8 C14 1_555 1_555
C13 C14 1_555 1_555
C16 C17 1_555 1_555
C33 C34 1_555 1_555
C40 C41 1_555 1_555

#END
