
#######################################################################
#
#                 Cambridge Crystallographic Data Centre
#                                CCDC 
#
#######################################################################
#
# If this CIF has been generated from an entry in the Cambridge 
# Structural Database, then it will include bibliographic, chemical, 
# crystal, experimental, refinement or atomic coordinate data resulting 
# from the CCDC's data processing and validation procedures.
#
#######################################################################

data_ZUWGIH01
_chemical_formula_moiety         'C21 H15 N1 O1'
_chemical_name_systematic        
1-((Z)-(naphthalene-4-ylimino)methyl)naphthalene-2-ol
_symmetry_cell_setting           monoclinic
_symmetry_space_group_name_H-M   'P 21/n'
_symmetry_Int_Tables_number      14
_space_group_name_Hall           '-P 2yn'
loop_
_symmetry_equiv_pos_site_id
_symmetry_equiv_pos_as_xyz
1 x,y,z
2 1/2-x,1/2+y,1/2-z
3 -x,-y,-z
4 1/2+x,1/2-y,1/2+z
_cell_length_a                   10.393(3)
_cell_length_b                   5.8516(18)
_cell_length_c                   11.833(4)
_cell_angle_alpha                90
_cell_angle_beta                 99.555(4)
_cell_angle_gamma                90
_cell_volume                     709.648
_exptl_crystal_colour            colorless
_exptl_crystal_description       prism
_cell_formula_units_Z            2
_exptl_crystal_recrystallization_method ethanol
loop_
_atom_site_label
_atom_site_type_symbol
_atom_site_fract_x
_atom_site_fract_y
_atom_site_fract_z
C1 C 0.0852(4) -0.2421(7) 0.4608(3)
C2 C 0.1695(3) -0.1816(6) 0.5636(2)
C3 C 0.2455(3) 0.0223(6) 0.5664(2)
H1 H 0.3018 0.0639 0.6350
C4 C 0.2383(4) 0.1565(8) 0.4730(3)
H2 H 0.2899 0.2912 0.4773
C5 C 0.1560(4) 0.1026(7) 0.3687(3)
C6 C 0.1476(4) 0.2472(7) 0.2718(3)
H3 H 0.1968 0.3848 0.2775
C7 C 0.0705(4) 0.1933(8) 0.1707(3)
H4 H 0.0668 0.2915 0.1063
C8 C -0.0026(4) -0.0065(8) 0.1625(3)
H5 H -0.0563 -0.0443 0.0919
C9 C 0.0013(4) -0.1505(8) 0.2548(3)
H6 H -0.0498 -0.2859 0.2471
C10 C 0.0794(4) -0.1005(7) 0.3601(3)
O1 O 0.1694(6) -0.3270(10) 0.6499(4)
H7 H 0.1102 -0.4244 0.6319
N1 N 0.0107(15) -0.426(3) 0.4641(12)
C1B C -0.0852(4) -0.7579(7) 0.5392(3)
C2B C -0.1695(3) -0.8184(6) 0.4364(2)
C3B C -0.2455(3) -1.0223(6) 0.4336(2)
H1B H -0.3018 -1.0639 0.3650
C4B C -0.2383(4) -1.1565(8) 0.5270(3)
H2B H -0.2899 -1.2912 0.5227
C5B C -0.1560(4) -1.1026(7) 0.6313(3)
C6B C -0.1476(4) -1.2472(7) 0.7282(3)
H3B H -0.1968 -1.3848 0.7225
C7B C -0.0705(4) -1.1933(8) 0.8293(3)
H4B H -0.0668 -1.2915 0.8937
C8B C 0.0026(4) -0.9935(8) 0.8375(3)
H5B H 0.0563 -0.9557 0.9081
C9B C -0.0013(4) -0.8495(8) 0.7452(3)
H6B H 0.0498 -0.7141 0.7529
C10B C -0.0794(4) -0.8995(7) 0.6399(3)
O1B O -0.1694(6) -0.6730(10) 0.3501(4)
H7B H -0.1102 -0.5756 0.3681
N1B N -0.0107(15) -0.574(3) 0.5359(12)
H8? H 0.1753 -0.2757 0.6297
H9? H -0.051(8) -0.450(16) 0.391(7)
C11? C -0.0066(18) -0.435(4) 0.4479(15)
loop_
_geom_bond_atom_site_label_1
_geom_bond_atom_site_label_2
_geom_bond_site_symmetry_1
_geom_bond_site_symmetry_2
C1 C2 1_555 1_555
C2 C3 1_555 1_555
C3 H1 1_555 1_555
C4 C3 1_555 1_555
H2 C4 1_555 1_555
C5 C4 1_555 1_555
C6 C5 1_555 1_555
H3 C6 1_555 1_555
C7 C6 1_555 1_555
H4 C7 1_555 1_555
C8 C7 1_555 1_555
H5 C8 1_555 1_555
C9 C8 1_555 1_555
H6 C9 1_555 1_555
C10 C1 1_555 1_555
O1 C2 1_555 1_555
H7 O1 1_555 1_555
N1 C1 1_555 1_555
C1B C2B 1_555 1_555
C2B C3B 1_555 1_555
C3B H1B 1_555 1_555
C4B C3B 1_555 1_555
H2B C4B 1_555 1_555
C5B C4B 1_555 1_555
C6B C5B 1_555 1_555
H3B C6B 1_555 1_555
C7B C6B 1_555 1_555
H4B C7B 1_555 1_555
C8B C7B 1_555 1_555
H5B C8B 1_555 1_555
C9B C8B 1_555 1_555
H6B C9B 1_555 1_555
C10B C1B 1_555 1_555
O1B C2B 1_555 1_555
H7B O1B 1_555 1_555
N1B N1 1_555 1_555
C5 C10 1_555 1_555
C9 C10 1_555 1_555
C1B N1B 1_555 1_555
C5B C10B 1_555 1_555
C9B C10B 1_555 1_555

#END
