
#######################################################################
#
#                 Cambridge Crystallographic Data Centre
#                                CCDC 
#
#######################################################################
#
# If this CIF has been generated from an entry in the Cambridge 
# Structural Database, then it will include bibliographic, chemical, 
# crystal, experimental, refinement or atomic coordinate data resulting 
# from the CCDC's data processing and validation procedures.
#
#######################################################################

data_ZUWPUE
_chemical_formula_moiety         'C27 H22 N2 O4 S1'
_chemical_name_systematic        
'Ethyl 6-methyl-3-phenyl-2-(quinolin-8-yl)-2H-1,2-benzothiazine-4-carboxylate 1,1-dioxide'
_symmetry_cell_setting           monoclinic
_symmetry_space_group_name_H-M   'P 21/n'
_symmetry_Int_Tables_number      14
_space_group_name_Hall           '-P 2yn'
loop_
_symmetry_equiv_pos_site_id
_symmetry_equiv_pos_as_xyz
1 x,y,z
2 1/2-x,1/2+y,1/2-z
3 -x,-y,-z
4 1/2+x,1/2-y,1/2+z
_cell_length_a                   9.639(2)
_cell_length_b                   13.379(3)
_cell_length_c                   18.394(4)
_cell_angle_alpha                90
_cell_angle_beta                 90.907(4)
_cell_angle_gamma                90
_cell_volume                     2371.8
_exptl_crystal_colour            colorless
_exptl_crystal_description       block
_cell_formula_units_Z            4
loop_
_atom_site_label
_atom_site_type_symbol
_atom_site_fract_x
_atom_site_fract_y
_atom_site_fract_z
S1 S 0.94267(18) 0.28581(10) 0.23544(8)
O1 O 1.0607(5) 0.2288(3) 0.2146(2)
N1 N 0.8957(5) 0.2474(3) 0.3170(2)
C1 C 0.8051(5) 0.3102(3) 0.3565(3)
C2 C 0.7993(5) 0.4102(3) 0.3439(2)
N2 N 1.0574(5) 0.2704(5) 0.4385(3)
O2 O 0.8186(5) 0.2849(3) 0.1898(2)
O3 O 0.7041(4) 0.5394(3) 0.4177(2)
C3 C 0.9051(5) 0.4629(4) 0.3015(3)
O4 O 0.5617(4) 0.4366(3) 0.3567(2)
C4 C 0.9880(5) 0.4095(4) 0.2538(3)
C5 C 1.0979(5) 0.4543(4) 0.2173(3)
H1 H 1.1548 0.4162 0.1860
C6 C 1.1219(6) 0.5541(4) 0.2275(3)
H2 H 1.1969 0.5849 0.2032
C7 C 1.0389(6) 0.6121(4) 0.2729(3)
C8 C 0.9316(6) 0.5652(4) 0.3082(3)
H3 H 0.8733 0.6041 0.3382
C9 C 1.0643(7) 0.7229(4) 0.2816(5)
H4 H 0.9923 0.7518 0.3122
H5 H 1.0615 0.7550 0.2337
H6 H 1.1556 0.7337 0.3045
C10 C 0.9610(6) 0.1608(4) 0.3465(3)
C11 C 1.0406(6) 0.1756(7) 0.4064(3)
C12 C 1.1326(10) 0.2678(12) 0.4978(5)
H7 H 1.1414 0.3307 0.5214
C13 C 1.1923(12) 0.2016(18) 0.5281(7)
H8 H 1.2441 0.2176 0.5709
C14 C 1.1919(14) 0.1123(10) 0.5075(8)
H9 H 1.2416 0.0619 0.5333
C15 C 1.1091(11) 0.0894(11) 0.4403(7)
C16 C 1.1038(10) -0.0001(11) 0.4147(6)
H10 H 1.1542 -0.0530 0.4373
C17 C 1.0152(9) -0.0184(5) 0.3478(6)
H11 H 1.0036 -0.0828 0.3268
C18 C 0.9514(7) 0.0672(4) 0.3194(4)
H12 H 0.8958 0.0586 0.2767
C19 C 0.7218(5) 0.2579(4) 0.4119(2)
C20 C 0.7191(6) 0.2940(4) 0.4819(3)
H13 H 0.7729 0.3510 0.4948
C21 C 0.6376(6) 0.2473(5) 0.5339(3)
H14 H 0.6363 0.2727 0.5821
C22 C 0.5600(6) 0.1655(5) 0.5160(3)
H15 H 0.5043 0.1342 0.5516
C23 C 0.5629(6) 0.1284(4) 0.4461(3)
H16 H 0.5087 0.0716 0.4334
C24 C 0.6449(6) 0.1739(4) 0.3943(3)
H17 H 0.6481 0.1472 0.3465
C25 C 0.6854(6) 0.4693(4) 0.3779(3)
C26 C 0.4418(7) 0.4857(5) 0.3895(5)
H18 H 0.4597 0.4961 0.4422
H19 H 0.4263 0.5519 0.3667
C27 C 0.3267(8) 0.4272(10) 0.3796(6)
H20 H 0.2433 0.4670 0.3884
H21 H 0.3304 0.3710 0.4137
H22 H 0.3240 0.4018 0.3297
loop_
_geom_bond_atom_site_label_1
_geom_bond_atom_site_label_2
_geom_bond_site_symmetry_1
_geom_bond_site_symmetry_2
S1 O1 1_555 1_555
N1 S1 1_555 1_555
C1 N1 1_555 1_555
C2 C1 1_555 1_555
N2 C11 1_555 1_555
O2 S1 1_555 1_555
O3 C25 1_555 1_555
C3 C2 1_555 1_555
O4 C25 1_555 1_555
C4 S1 1_555 1_555
C5 C4 1_555 1_555
H1 C5 1_555 1_555
C6 C5 1_555 1_555
H2 C6 1_555 1_555
C7 C6 1_555 1_555
C8 C3 1_555 1_555
H3 C8 1_555 1_555
C9 C7 1_555 1_555
H4 C9 1_555 1_555
H5 C9 1_555 1_555
H6 C9 1_555 1_555
C10 N1 1_555 1_555
C11 C10 1_555 1_555
C12 N2 1_555 1_555
H7 C12 1_555 1_555
C13 C12 1_555 1_555
H8 C13 1_555 1_555
C14 C13 1_555 1_555
H9 C14 1_555 1_555
C15 C11 1_555 1_555
C16 C15 1_555 1_555
H10 C16 1_555 1_555
C17 C16 1_555 1_555
H11 C17 1_555 1_555
C18 C10 1_555 1_555
H12 C18 1_555 1_555
C19 C1 1_555 1_555
C20 C19 1_555 1_555
H13 C20 1_555 1_555
C21 C20 1_555 1_555
H14 C21 1_555 1_555
C22 C21 1_555 1_555
H15 C22 1_555 1_555
C23 C22 1_555 1_555
H16 C23 1_555 1_555
C24 C19 1_555 1_555
H17 C24 1_555 1_555
C25 C2 1_555 1_555
C26 O4 1_555 1_555
H18 C26 1_555 1_555
H19 C26 1_555 1_555
C27 C26 1_555 1_555
H20 C27 1_555 1_555
H21 C27 1_555 1_555
H22 C27 1_555 1_555
C3 C4 1_555 1_555
C7 C8 1_555 1_555
C14 C15 1_555 1_555
C17 C18 1_555 1_555
C23 C24 1_555 1_555

#END
