
#######################################################################
#
#                 Cambridge Crystallographic Data Centre
#                                CCDC 
#
#######################################################################
#
# If this CIF has been generated from an entry in the Cambridge 
# Structural Database, then it will include bibliographic, chemical, 
# crystal, experimental, refinement or atomic coordinate data resulting 
# from the CCDC's data processing and validation procedures.
#
#######################################################################

data_ZUWVUK
_chemical_formula_moiety         'C28 H25 N1 O5'
_chemical_name_systematic        
4-(1-Naphthyl)-3-phenoxy-1-(3,4,5-trimethoxyphenyl)azetidin-2-one
_chemical_properties_biological  'antiproliferative activity'
_symmetry_cell_setting           triclinic
_symmetry_space_group_name_H-M   'P -1'
_symmetry_Int_Tables_number      2
_space_group_name_Hall           '-P 1'
loop_
_symmetry_equiv_pos_site_id
_symmetry_equiv_pos_as_xyz
1 x,y,z
2 -x,-y,-z
_cell_length_a                   10.1226(5)
_cell_length_b                   14.7272(7)
_cell_length_c                   17.3808(8)
_cell_angle_alpha                74.9040(10)
_cell_angle_beta                 75.6960(10)
_cell_angle_gamma                74.3650(10)
_cell_volume                     2365.11
_exptl_crystal_colour            colorless
_exptl_crystal_description       plate
_cell_formula_units_Z            4
loop_
_atom_site_label
_atom_site_type_symbol
_atom_site_fract_x
_atom_site_fract_y
_atom_site_fract_z
O1 O 0.13533(12) 0.99390(8) 0.78478(7)
O2 O 0.09061(13) 1.01895(9) 0.59978(8)
O3 O 0.37496(12) 0.87822(9) 0.35549(7)
O4 O 0.64040(12) 0.79020(8) 0.35817(7)
O5 O 0.75550(13) 0.77458(10) 0.48454(8)
N1 N 0.31979(14) 0.94530(10) 0.62087(8)
C1 C 0.5855(2) 0.89965(19) 0.94056(14)
H1 H 0.6282 0.9054 0.9815
C2 C 0.5563(2) 0.81464(17) 0.94252(12)
H2 H 0.5772 0.7615 0.9856
C3 C 0.49442(18) 0.80331(13) 0.88092(11)
C4 C 0.4689(2) 0.71497(15) 0.87964(13)
H3 H 0.4911 0.6606 0.9215
C5 C 0.4129(2) 0.70599(13) 0.81946(14)
H4 H 0.3973 0.6452 0.8194
C6 C 0.37724(19) 0.78626(12) 0.75640(11)
H5 H 0.3374 0.7791 0.7148
C7 C 0.40023(16) 0.87365(11) 0.75568(9)
C8 C 0.46120(16) 0.88406(12) 0.81776(9)
C9 C 0.49240(18) 0.97130(13) 0.81972(10)
H6 H 0.4703 1.0266 0.7786
C10 C 0.5535(2) 0.97813(16) 0.87914(12)
H7 H 0.5742 1.0376 0.8782
C11 C 0.01345(17) 1.05433(12) 0.81322(10)
C12 C -0.04683(19) 1.14052(13) 0.76812(12)
H8 H -0.0051 1.1618 0.7133
C13 C -0.1694(2) 1.19586(15) 0.80390(14)
H9 H -0.2110 1.2558 0.7734
C14 C -0.2313(2) 1.16501(16) 0.88285(14)
H10 H -0.3154 1.2032 0.9067
C15 C -0.1710(2) 1.07870(16) 0.92706(13)
H11 H -0.2137 1.0572 0.9817
C16 C -0.04909(19) 1.02304(14) 0.89274(11)
H12 H -0.0080 0.9633 0.9236
C17 C 0.36230(16) 0.96061(11) 0.69092(9)
H13 H 0.4361 0.9992 0.6729
C18 C 0.21384(17) 1.02635(11) 0.70852(9)
H14 H 0.2163 1.0959 0.6989
C19 C 0.18672(18) 1.00007(12) 0.63476(10)
C20 C 0.40140(17) 0.90586(11) 0.55423(9)
C21 C 0.53882(17) 0.85974(12) 0.55621(10)
H15 H 0.5783 0.8551 0.6017
C22 C 0.61865(17) 0.82017(12) 0.49054(10)
C23 C 0.55970(17) 0.82585(11) 0.42462(9)
C24 C 0.42110(17) 0.87354(11) 0.42389(9)
C25 C 0.34027(17) 0.91468(11) 0.48828(9)
H16 H 0.2460 0.9479 0.4875
C26 C 0.2336(2) 0.92535(17) 0.35230(13)
H17 H 0.1718 0.8908 0.3959
H18 H 0.2138 0.9261 0.2997
H19 H 0.2176 0.9917 0.3591
C27 C 0.6272(2) 0.69625(14) 0.35833(12)
H20 H 0.6630 0.6503 0.4044
H21 H 0.6811 0.6773 0.3076
H22 H 0.5286 0.6966 0.3630
C28 C 0.8232(2) 0.77372(17) 0.54780(13)
H23 H 0.8122 0.8400 0.5535
H24 H 0.9228 0.7442 0.5343
H25 H 0.7810 0.7364 0.5990
O6 O 0.61448(11) 0.63265(8) 1.17635(6)
O7 O 0.82249(11) 0.71607(8) 1.16296(6)
O8 O 1.02131(12) 0.72766(9) 1.03008(7)
O9 O 0.64313(12) 0.45553(9) 0.95012(7)
O10 O 0.76453(12) 0.50559(8) 0.76450(7)
N2 N 0.82717(13) 0.53613(9) 0.91917(7)
C29 C 1.17746(16) 0.54585(12) 0.71129(10)
H26 H 1.1708 0.4842 0.7446
C30 C 1.29350(18) 0.55529(14) 0.65302(11)
H27 H 1.3678 0.5006 0.6471
C31 C 1.3046(2) 0.64473(16) 0.60170(11)
H28 H 1.3852 0.6504 0.5605
C32 C 1.1997(2) 0.72336(15) 0.61101(11)
H29 H 1.2076 0.7837 0.5757
C33 C 1.07968(18) 0.71730(12) 0.67172(10)
C34 C 1.06664(16) 0.62628(11) 0.72313(9)
C35 C 0.94340(16) 0.62147(11) 0.78375(9)
C36 C 0.84124(18) 0.70304(12) 0.79044(10)
H30 H 0.7581 0.6988 0.8298
C37 C 0.8561(2) 0.79258(13) 0.74079(12)
H31 H 0.7842 0.8483 0.7474
C38 C 0.9726(2) 0.80000(12) 0.68335(11)
H32 H 0.9828 0.8612 0.6505
C39 C 0.92973(16) 0.52820(11) 0.84276(9)
H33 H 1.0229 0.4888 0.8537
C40 C 0.84012(17) 0.46476(11) 0.82766(9)
H34 H 0.8904 0.3962 0.8281
C41 C 0.81338(17) 0.47673(12) 0.69147(9)
C42 C 0.7241(2) 0.51503(14) 0.63665(11)
H35 H 0.6395 0.5602 0.6496
C43 C 0.7587(3) 0.48714(19) 0.56320(12)
H36 H 0.6971 0.5126 0.5257
C44 C 0.9705(2) 0.38624(18) 0.59775(13)
H37 H 1.0557 0.3420 0.5839
C45 C 0.93781(19) 0.41287(14) 0.67255(10)
H38 H 1.0000 0.3876 0.7098
C46 C 0.82410(15) 0.58141(11) 0.98176(9)
C47 C 0.71644(15) 0.57835(10) 1.04922(9)
H39 H 0.6462 0.5442 1.0548
C48 C 0.74642(17) 0.48089(11) 0.90900(9)
C49 C 0.71481(15) 0.62692(10) 1.10839(9)
C50 C 0.81996(16) 0.67489(11) 1.10097(9)
C51 C 0.92529(16) 0.67755(11) 1.03233(9)
C52 C 0.92824(16) 0.63006(11) 0.97245(9)
H40 H 1.0007 0.6309 0.9258
C53 C 0.50073(17) 0.58858(13) 1.18627(10)
H41 H 0.4548 0.6154 1.1393
H42 H 0.4335 0.6011 1.2357
H43 H 0.5355 0.5189 1.1907
C54 C 0.7543(2) 0.81551(13) 1.15221(12)
H44 H 0.8039 0.8518 1.1032
H45 H 0.7545 0.8402 1.1994
H46 H 0.6578 0.8229 1.1467
C55 C 1.12578(19) 0.73760(15) 0.95815(11)
H47 H 1.1814 0.6737 0.9508
H48 H 1.1868 0.7765 0.9631
H49 H 1.0808 0.7694 0.9112
C56 C 0.8815(3) 0.4229(2) 0.54380(14)
H50 H 0.9048 0.4039 0.4931
loop_
_geom_bond_atom_site_label_1
_geom_bond_atom_site_label_2
_geom_bond_site_symmetry_1
_geom_bond_site_symmetry_2
O1 C11 1_555 1_555
O2 C19 1_555 1_555
O3 C24 1_555 1_555
O4 C23 1_555 1_555
O5 C22 1_555 1_555
N1 C17 1_555 1_555
C1 H1 1_555 1_555
C2 C1 1_555 1_555
H2 C2 1_555 1_555
C3 C2 1_555 1_555
C4 C3 1_555 1_555
H3 C4 1_555 1_555
C5 C4 1_555 1_555
H4 C5 1_555 1_555
C6 C5 1_555 1_555
H5 C6 1_555 1_555
C7 C6 1_555 1_555
C8 C3 1_555 1_555
C9 C8 1_555 1_555
H6 C9 1_555 1_555
C10 C1 1_555 1_555
H7 C10 1_555 1_555
C11 C12 1_555 1_555
C12 H8 1_555 1_555
C13 C12 1_555 1_555
H9 C13 1_555 1_555
C14 C13 1_555 1_555
H10 C14 1_555 1_555
C15 C14 1_555 1_555
H11 C15 1_555 1_555
C16 C11 1_555 1_555
H12 C16 1_555 1_555
C17 C7 1_555 1_555
H13 C17 1_555 1_555
C18 O1 1_555 1_555
H14 C18 1_555 1_555
C19 N1 1_555 1_555
C20 N1 1_555 1_555
C21 C20 1_555 1_555
H15 C21 1_555 1_555
C22 C21 1_555 1_555
C23 C22 1_555 1_555
C24 C23 1_555 1_555
C25 C20 1_555 1_555
H16 C25 1_555 1_555
C26 O3 1_555 1_555
H17 C26 1_555 1_555
H18 C26 1_555 1_555
H19 C26 1_555 1_555
C27 O4 1_555 1_555
H20 C27 1_555 1_555
H21 C27 1_555 1_555
H22 C27 1_555 1_555
C28 O5 1_555 1_555
H23 C28 1_555 1_555
H24 C28 1_555 1_555
H25 C28 1_555 1_555
O6 C49 1_555 1_555
O7 C50 1_555 1_555
O8 C51 1_555 1_555
O9 C48 1_555 1_555
O10 C40 1_555 1_555
N2 C39 1_555 1_555
C29 H26 1_555 1_555
C30 C29 1_555 1_555
H27 C30 1_555 1_555
C31 C30 1_555 1_555
H28 C31 1_555 1_555
C32 C31 1_555 1_555
H29 C32 1_555 1_555
C33 C32 1_555 1_555
C34 C29 1_555 1_555
C35 C34 1_555 1_555
C36 C35 1_555 1_555
H30 C36 1_555 1_555
C37 C36 1_555 1_555
H31 C37 1_555 1_555
C38 C33 1_555 1_555
H32 C38 1_555 1_555
C39 C35 1_555 1_555
H33 C39 1_555 1_555
C40 C39 1_555 1_555
H34 C40 1_555 1_555
C41 O10 1_555 1_555
C42 C41 1_555 1_555
H35 C42 1_555 1_555
C43 C42 1_555 1_555
H36 C43 1_555 1_555
C44 H37 1_555 1_555
C45 C41 1_555 1_555
H38 C45 1_555 1_555
C46 N2 1_555 1_555
C47 C46 1_555 1_555
H39 C47 1_555 1_555
C48 N2 1_555 1_555
C49 C47 1_555 1_555
C50 C49 1_555 1_555
C51 C50 1_555 1_555
C52 C46 1_555 1_555
H40 C52 1_555 1_555
C53 O6 1_555 1_555
H41 C53 1_555 1_555
H42 C53 1_555 1_555
H43 C53 1_555 1_555
C54 O7 1_555 1_555
H44 C54 1_555 1_555
H45 C54 1_555 1_555
H46 C54 1_555 1_555
C55 O8 1_555 1_555
H47 C55 1_555 1_555
H48 C55 1_555 1_555
H49 C55 1_555 1_555
C56 C43 1_555 1_555
H50 C56 1_555 1_555
C7 C8 1_555 1_555
C9 C10 1_555 1_555
C15 C16 1_555 1_555
C17 C18 1_555 1_555
C18 C19 1_555 1_555
C24 C25 1_555 1_555
C33 C34 1_555 1_555
C37 C38 1_555 1_555
C40 C48 1_555 1_555
C44 C45 1_555 1_555
C44 C56 1_555 1_555
C51 C52 1_555 1_555

#END
