
#######################################################################
#
#                 Cambridge Crystallographic Data Centre
#                                CCDC 
#
#######################################################################
#
# If this CIF has been generated from an entry in the Cambridge 
# Structural Database, then it will include bibliographic, chemical, 
# crystal, experimental, refinement or atomic coordinate data resulting 
# from the CCDC's data processing and validation procedures.
#
#######################################################################

data_ZUWXAS
_chemical_formula_moiety         'C25 H25 N1 O7'
_chemical_name_systematic        
4-(3-Hydroxy-4-methoxyphenyl)-3-phenoxy-1-(3,4,5-trimethoxyphenyl)azetidin-2-one
_chemical_properties_biological  'antiproliferative activity'
_symmetry_cell_setting           triclinic
_symmetry_space_group_name_H-M   'P -1'
_symmetry_Int_Tables_number      2
_space_group_name_Hall           '-P 1'
loop_
_symmetry_equiv_pos_site_id
_symmetry_equiv_pos_as_xyz
1 x,y,z
2 -x,-y,-z
_cell_length_a                   10.1947(14)
_cell_length_b                   10.4230(15)
_cell_length_c                   12.6773(18)
_cell_angle_alpha                90.781(2)
_cell_angle_beta                 110.249(2)
_cell_angle_gamma                117.553(2)
_cell_volume                     1095.78
_exptl_crystal_colour            colorless
_exptl_crystal_description       prism
_cell_formula_units_Z            2
loop_
_atom_site_label
_atom_site_type_symbol
_atom_site_fract_x
_atom_site_fract_y
_atom_site_fract_z
O1 O 0.64448(11) 0.19985(11) 0.49714(8)
O2 O 0.75615(11) 0.90001(9) 1.00995(8)
O3 O 0.83446(10) 0.69386(10) 0.99070(8)
O4 O 0.01429(11) 0.30114(10) 0.71388(8)
O5 O 0.70485(12) 0.12647(12) 0.70599(9)
H1 H 0.7913 0.1900 0.7025
O6 O 0.45290(11) 0.84282(10) 0.91550(9)
N1 N 0.27443(12) 0.33047(11) 0.77348(9)
C1 C 0.59830(18) 0.22367(18) 0.38234(12)
H2 H 0.6565 0.2017 0.3442
H3 H 0.6247 0.3271 0.3844
H4 H 0.4820 0.1586 0.3397
C2 C 0.55773(14) 0.20736(13) 0.55625(11)
C3 C 0.59130(15) 0.16741(14) 0.66326(11)
C4 C 0.50276(15) 0.16379(14) 0.72602(11)
H5 H 0.5225 0.1327 0.7972
C5 C 0.38527(14) 0.20503(13) 0.68639(11)
C6 C 0.28725(15) 0.19650(13) 0.75370(11)
C7 C 0.39546(14) 0.47640(13) 0.83029(10)
C8 C 0.55446(15) 0.50715(13) 0.87874(10)
H6 H 0.5802 0.4316 0.8718
C9 C 0.67488(14) 0.64999(13) 0.93739(10)
C10 C 0.63692(14) 0.76095(13) 0.94672(10)
C11 C 0.81533(19) 1.00178(15) 0.94151(14)
H7 H 0.9008 1.0982 0.9915
H8 H 0.7271 1.0126 0.8874
H9 H 0.8587 0.9645 0.8987
C12 C 0.88220(16) 0.58565(15) 0.99050(13)
H10 H 0.9981 0.6308 1.0369
H11 H 0.8589 0.5468 0.9114
H12 H 0.8225 0.5047 1.0230
C13 C 0.11030(15) 0.25968(13) 0.72527(10)
C14 C 0.44480(16) 0.25258(16) 0.51824(11)
H13 H 0.4251 0.2839 0.4471
C15 C 0.35982(16) 0.25260(15) 0.58344(11)
H14 H 0.2836 0.2855 0.5572
C16 C 0.35376(14) 0.58475(13) 0.83844(10)
H15 H 0.2446 0.5622 0.8041
C17 C 0.47655(15) 0.72714(13) 0.89843(10)
C18 C 0.29353(16) 0.81268(15) 0.89047(12)
H16 H 0.2950 0.9051 0.9087
H17 H 0.2483 0.7442 0.9367
H18 H 0.2271 0.7678 0.8087
C19 C 0.09840(16) 0.11480(14) 0.68524(16)
H19 H 0.0662 0.0920 0.6003
O7 O 0.00157(11) -0.00446(10) 0.72362(8)
C20 C -0.0256(3) -0.1415(2) 0.68426(19)
C21 C -0.1322(3) -0.2589(3) 0.71657(18)
H20 H -0.1788 -0.2418 0.7645
C22 C -0.1689(5) -0.4007(4) 0.6777(4)
H21 H -0.2414 -0.4815 0.6994
C23 C -0.1014(6) -0.4272(4) 0.6072(4)
H22 H -0.1278 -0.5253 0.5810
C24 C 0.0034(4) -0.3107(4) 0.5759(3)
H23 H 0.0483 -0.3285 0.5269
C25 C 0.0448(3) -0.1656(3) 0.6156(2)
H24 H 0.1200 -0.0848 0.5958
H25 H 0.3213(17) 0.1673(16) 0.8239(13)
C26? C 0.1035(6) 0.1100(5) 0.7295(8)
H26? H 0.0787 0.0654 0.7943
O8? O 0.0320(9) 0.0078(7) 0.6266(6)
C27? C -0.0053(14) -0.1351(8) 0.6382(12)
C28? C -0.1046(19) -0.2136(18) 0.6925(12)
H27? H -0.1347 -0.1628 0.7338
C29? C -0.162(3) -0.362(2) 0.689(2)
H28? H -0.2328 -0.4140 0.7259
C30? C -0.114(4) -0.434(2) 0.632(2)
H29? H -0.1498 -0.5369 0.6283
C31? C -0.013(4) -0.355(2) 0.581(2)
H30? H 0.0220 -0.4040 0.5431
C32? C 0.0399(16) -0.209(2) 0.5806(12)
H31? H 0.1070 -0.1584 0.5412
loop_
_geom_bond_atom_site_label_1
_geom_bond_atom_site_label_2
_geom_bond_site_symmetry_1
_geom_bond_site_symmetry_2
O1 C1 1_555 1_555
O2 C10 1_555 1_555
O3 C9 1_555 1_555
O4 C13 1_555 1_555
O5 H1 1_555 1_555
O6 C17 1_555 1_555
N1 C6 1_555 1_555
C1 H2 1_555 1_555
H3 C1 1_555 1_555
H4 C1 1_555 1_555
C2 O1 1_555 1_555
C3 O5 1_555 1_555
C4 C3 1_555 1_555
H5 C4 1_555 1_555
C5 C4 1_555 1_555
C6 C5 1_555 1_555
C7 N1 1_555 1_555
C8 C7 1_555 1_555
H6 C8 1_555 1_555
C9 C8 1_555 1_555
C10 C9 1_555 1_555
C11 O2 1_555 1_555
H7 C11 1_555 1_555
H8 C11 1_555 1_555
H9 C11 1_555 1_555
C12 O3 1_555 1_555
H10 C12 1_555 1_555
H11 C12 1_555 1_555
H12 C12 1_555 1_555
C13 N1 1_555 1_555
C14 C2 1_555 1_555
H13 C14 1_555 1_555
C15 C5 1_555 1_555
H14 C15 1_555 1_555
C16 C7 1_555 1_555
H15 C16 1_555 1_555
C17 C10 1_555 1_555
C18 O6 1_555 1_555
H16 C18 1_555 1_555
H17 C18 1_555 1_555
H18 C18 1_555 1_555
C19 C6 1_555 1_555
H19 C19 1_555 1_555
O7 C19 1_555 1_555
C20 O7 1_555 1_555
C21 C20 1_555 1_555
H20 C21 1_555 1_555
C22 C21 1_555 1_555
H21 C22 1_555 1_555
C23 C22 1_555 1_555
H22 C23 1_555 1_555
C24 C23 1_555 1_555
H23 C24 1_555 1_555
C25 C20 1_555 1_555
H24 C25 1_555 1_555
H25 C6 1_555 1_555
C2 C3 1_555 1_555
C13 C19 1_555 1_555
C14 C15 1_555 1_555
C16 C17 1_555 1_555
C24 C25 1_555 1_555

#END
