
#######################################################################
#
#                 Cambridge Crystallographic Data Centre
#                                CCDC 
#
#######################################################################
#
# If this CIF has been generated from an entry in the Cambridge 
# Structural Database, then it will include bibliographic, chemical, 
# crystal, experimental, refinement or atomic coordinate data resulting 
# from the CCDC's data processing and validation procedures.
#
#######################################################################

data_ZUYHAE
_chemical_formula_moiety         'C62 H72 N4 O13,C1 H4 O1,1.6(H2 O1)'
_chemical_name_systematic        
'4-(2-isopropyl-5-methylcyclohexyl) 2-methyl 1-((5-(methoxycarbonyl)-1-((5-(methoxycarbonyl)-1-((5-(methoxycarbonyl)-2-phenylpyrrolidin-3-yl)carbonyl)-2-phenylpyrrolidin-3-yl)carbonyl)-2-phenylpyrrolidin-3-yl)carbonyl)-5-phenylpyrrolidine-2,4-dicarboxylate methanol solvate hydrate'
_symmetry_cell_setting           monoclinic
_symmetry_space_group_name_H-M   'P 21'
_symmetry_Int_Tables_number      4
_space_group_name_Hall           'P 2yb'
loop_
_symmetry_equiv_pos_site_id
_symmetry_equiv_pos_as_xyz
1 x,y,z
2 -x,1/2+y,-z
_cell_length_a                   11.6250(5)
_cell_length_b                   18.3893(8)
_cell_length_c                   14.4844(7)
_cell_angle_alpha                90
_cell_angle_beta                 92.410(3)
_cell_angle_gamma                90
_cell_volume                     3093.67
_exptl_crystal_colour            colorless
_exptl_crystal_description       plate
_cell_formula_units_Z            2
loop_
_atom_site_label
_atom_site_type_symbol
_atom_site_fract_x
_atom_site_fract_y
_atom_site_fract_z
N1 N 0.7938(4) 0.4729(3) 0.2872(4)
N2 N 0.6173(4) 0.6099(3) 0.5181(4)
N3 N 0.2406(4) 0.5433(3) 0.5555(4)
N4 N 0.0275(4) 0.3805(3) 0.4287(4)
H1 H -0.0167 0.4195 0.4398
O1 O 1.0158(3) 0.3858(3) 0.0839(4)
O2 O 0.8723(4) 0.3023(3) 0.0765(4)
O3 O 0.6096(3) 0.3417(3) 0.3968(4)
O4 O 0.5540(4) 0.4346(3) 0.3042(4)
O5 O 0.8382(4) 0.5929(3) 0.2958(4)
O6 O 0.8043(4) 0.6735(3) 0.6969(4)
O7 O 0.7398(4) 0.7405(3) 0.5769(4)
O8 O 0.5386(3) 0.6463(3) 0.6478(3)
O9 O 0.1574(4) 0.6113(3) 0.7139(4)
O10 O 0.0477(4) 0.6846(3) 0.6215(4)
O11 O 0.0572(3) 0.5053(2) 0.5641(4)
O12 O -0.0921(5) 0.2734(3) 0.6102(5)
O13 O -0.1614(4) 0.3747(3) 0.5416(4)
C1 C 0.8611(5) 0.4656(4) 0.2035(5)
H2 H 0.9332 0.4948 0.2129
C2 C 0.8946(5) 0.3833(4) 0.2076(5)
H3 H 0.9635 0.3779 0.2507
C3 C 0.7921(6) 0.3471(4) 0.2520(5)
H4 H 0.8147 0.3001 0.2807
H5 H 0.7282 0.3388 0.2058
C4 C 0.7571(5) 0.4028(4) 0.3259(5)
H6 H 0.8004 0.3930 0.3858
C5 C 0.7983(5) 0.4924(4) 0.1166(5)
C6 C 0.8503(6) 0.5448(4) 0.0618(6)
H7 H 0.9250 0.5618 0.0799
C7 C 0.7971(7) 0.5724(5) -0.0172(6)
H8 H 0.8356 0.6071 -0.0533
C8 C 0.6885(7) 0.5497(5) -0.0436(6)
H9 H 0.6514 0.5682 -0.0984
C9 C 0.6335(7) 0.4996(6) 0.0102(7)
H10 H 0.5576 0.4843 -0.0072
C10 C 0.6876(6) 0.4713(5) 0.0891(6)
H11 H 0.6483 0.4369 0.1251
C11 C 0.9234(6) 0.3509(4) 0.1152(6)
C12 C 1.2554(6) 0.3464(4) 0.0519(6)
H12 H 1.2228 0.3509 0.1145
C13 C 1.3767(6) 0.3791(5) 0.0591(6)
H13 H 1.3713 0.4318 0.0681
H14 H 1.4164 0.3691 0.0021
H15 H 1.4200 0.3574 0.1117
C14 C 1.2623(7) 0.2656(5) 0.0308(7)
H16 H 1.1843 0.2455 0.0234
H17 H 1.3041 0.2407 0.0817
H18 H 1.3028 0.2584 -0.0265
C15 C 0.9258(6) 0.4568(5) -0.2355(6)
H19 H 0.9509 0.4575 -0.2992
H20 H 0.9261 0.5064 -0.2109
H21 H 0.8478 0.4367 -0.2343
C16 C 0.6293(5) 0.3965(4) 0.3385(5)
C17 C 0.4915(5) 0.3231(4) 0.4079(6)
H22 H 0.4863 0.2872 0.4576
H23 H 0.4591 0.3025 0.3501
H24 H 0.4483 0.3668 0.4236
C18 C 0.7938(5) 0.5385(4) 0.3306(5)
C19 C 0.6194(5) 0.5821(4) 0.4218(5)
H25 H 0.5589 0.5438 0.4129
C20 C 0.7413(5) 0.5449(4) 0.4235(5)
H26 H 0.7355 0.4953 0.4514
C21 C 0.8133(5) 0.5931(4) 0.4885(5)
H27 H 0.8366 0.6383 0.4572
H28 H 0.8831 0.5673 0.5125
C22 C 0.7310(5) 0.6093(4) 0.5661(5)
H29 H 0.7349 0.5692 0.6128
C23 C 0.7566(5) 0.6817(4) 0.6133(5)
C24 C 0.8353(6) 0.7415(4) 0.7444(6)
H30 H 0.8581 0.7311 0.8090
H31 H 0.7688 0.7743 0.7422
H32 H 0.8995 0.7645 0.7139
C25 C 0.5998(5) 0.6401(4) 0.3497(5)
C26 C 0.5683(6) 0.6194(4) 0.2601(6)
H33 H 0.5602 0.5691 0.2461
C27 C 0.5482(6) 0.6702(5) 0.1905(6)
H34 H 0.5267 0.6547 0.1296
C28 C 0.5597(6) 0.7435(4) 0.2101(7)
H35 H 0.5460 0.7785 0.1626
C29 C 0.5915(6) 0.7660(5) 0.2992(6)
H36 H 0.5997 0.8163 0.3127
C30 C 0.6110(5) 0.7148(4) 0.3684(6)
H37 H 0.6323 0.7304 0.4293
C31 C 0.5258(5) 0.6260(4) 0.5653(5)
C32 C 0.2029(5) 0.6194(4) 0.5550(5)
H38 H 0.1641 0.6313 0.4939
C33 C 0.3162(5) 0.6629(4) 0.5668(6)
H39 H 0.3103 0.7102 0.5341
H40 H 0.3365 0.6718 0.6329
C34 C 0.4055(5) 0.6133(4) 0.5231(5)
H41 H 0.4058 0.6234 0.4553
C35 C 0.3640(5) 0.5331(4) 0.5381(5)
H42 H 0.3719 0.5048 0.4798
C36 C 0.4294(5) 0.4949(4) 0.6171(5)
C37 C 0.3993(5) 0.5009(4) 0.7075(6)
H43 H 0.3301 0.5251 0.7218
C38 C 0.4697(5) 0.4718(4) 0.7785(6)
H44 H 0.4481 0.4753 0.8409
C39 C 0.5703(6) 0.4379(4) 0.7577(6)
H45 H 0.6200 0.4203 0.8064
C40 C 0.6010(6) 0.4289(4) 0.6671(6)
H46 H 0.6694 0.4036 0.6533
C41 C 0.5299(5) 0.4576(4) 0.5971(5)
H47 H 0.5497 0.4517 0.5346
C42 C 0.1246(5) 0.6403(4) 0.6326(6)
C43 C 0.0973(7) 0.6378(4) 0.7914(6)
H48 H 0.1274 0.6140 0.8479
H49 H 0.0150 0.6272 0.7824
H50 H 0.1084 0.6905 0.7969
C44 C 1.0501(5) 0.3688(4) -0.0100(6)
H51 H 1.0396 0.3156 -0.0225
C45 C 1.1755(5) 0.3888(4) -0.0151(5)
H52 H 1.1823 0.4413 0.0026
C46 C 1.2085(6) 0.3831(5) -0.1173(6)
H53 H 1.2902 0.3973 -0.1226
H54 H 1.2000 0.3321 -0.1383
C47 C 1.1326(6) 0.4322(5) -0.1793(6)
H55 H 1.1412 0.4832 -0.1584
H56 H 1.1579 0.4292 -0.2436
C48 C 1.0073(6) 0.4099(4) -0.1767(6)
H57 H 1.0001 0.3585 -0.1988
C49 C 0.9722(6) 0.4127(5) -0.0759(6)
H58 H 0.9725 0.4640 -0.0553
H59 H 0.8925 0.3942 -0.0726
C50 C 0.1590(5) 0.4898(4) 0.5524(5)
C51 C 0.1495(5) 0.4021(4) 0.4219(5)
H60 H 0.1912 0.3588 0.3984
C52 C 0.1933(5) 0.4135(4) 0.5257(5)
H61 H 0.2783 0.4061 0.5336
C53 C 0.1259(5) 0.3548(4) 0.5778(5)
H62 H 0.0933 0.3753 0.6342
H63 H 0.1765 0.3133 0.5954
C54 C 0.0282(5) 0.3306(4) 0.5072(5)
H64 H 0.0454 0.2804 0.4850
C55 C -0.0861(6) 0.3301(4) 0.5516(6)
C56 C -0.1973(8) 0.2696(5) 0.6627(8)
H65 H -0.2010 0.2225 0.6938
H66 H -0.2648 0.2754 0.6204
H67 H -0.1964 0.3086 0.7088
C57 C 0.1706(5) 0.4633(4) 0.3565(5)
C58 C 0.2680(5) 0.4615(4) 0.3043(6)
H68 H 0.3181 0.4207 0.3094
C59 C 0.2940(6) 0.5179(4) 0.2447(6)
H69 H 0.3616 0.5158 0.2101
C60 C 0.2198(6) 0.5780(5) 0.2361(6)
H70 H 0.2372 0.6171 0.1962
C61 C 0.1211(6) 0.5796(4) 0.2862(6)
H71 H 0.0697 0.6196 0.2799
C62 C 0.0967(5) 0.5220(4) 0.3467(6)
H72 H 0.0289 0.5236 0.3810
O14 O 0.4648(10) 0.7375(6) 0.7912(8)
H73 H 0.5234 0.7160 0.7731
C63 C 0.4205(10) 0.6998(9) 0.8621(9)
H74 H 0.3928 0.7339 0.9082
H75 H 0.4804 0.6687 0.8908
H76 H 0.3563 0.6695 0.8386
O15 O 0.9161(11) 0.7152(8) 0.2026(10)
H77 H 0.8920 0.6782 0.2311
H78 H 0.9701 0.7102 0.1653
O16 O 0.0981(14) 0.6976(10) 0.0784(12)
H79 H 0.1063 0.7276 0.0346
H80 H 0.1471 0.6688 0.0564
O17 O 0.2834(19) 0.5886(13) 0.9926(16)
H81 H 0.3227 0.5691 1.0368
H82 H 0.3072 0.5725 0.9419
loop_
_geom_bond_atom_site_label_1
_geom_bond_atom_site_label_2
_geom_bond_site_symmetry_1
_geom_bond_site_symmetry_2
N1 C1 1_555 1_555
N2 C19 1_555 1_555
N3 C32 1_555 1_555
N4 H1 1_555 1_555
O1 C11 1_555 1_555
O2 C11 1_555 1_555
O3 C16 1_555 1_555
O4 C16 1_555 1_555
O5 C18 1_555 1_555
O6 C23 1_555 1_555
O7 C23 1_555 1_555
O8 C31 1_555 1_555
O9 C42 1_555 1_555
O10 C42 1_555 1_555
O11 C50 1_555 1_555
O12 C55 1_555 1_555
O13 C55 1_555 1_555
C1 H2 1_555 1_555
C2 C1 1_555 1_555
H3 C2 1_555 1_555
C3 C2 1_555 1_555
H4 C3 1_555 1_555
H5 C3 1_555 1_555
C4 N1 1_555 1_555
H6 C4 1_555 1_555
C5 C1 1_555 1_555
C6 C5 1_555 1_555
H7 C6 1_555 1_555
C7 C6 1_555 1_555
H8 C7 1_555 1_555
C8 C7 1_555 1_555
H9 C8 1_555 1_555
C9 C8 1_555 1_555
H10 C9 1_555 1_555
C10 C5 1_555 1_555
H11 C10 1_555 1_555
C11 C2 1_555 1_555
C12 H12 1_555 1_555
C13 C12 1_555 1_555
H13 C13 1_555 1_555
H14 C13 1_555 1_555
H15 C13 1_555 1_555
C14 C12 1_555 1_555
H16 C14 1_555 1_555
H17 C14 1_555 1_555
H18 C14 1_555 1_555
C15 H19 1_555 1_555
H20 C15 1_555 1_555
H21 C15 1_555 1_555
C16 C4 1_555 1_555
C17 O3 1_555 1_555
H22 C17 1_555 1_555
H23 C17 1_555 1_555
H24 C17 1_555 1_555
C18 N1 1_555 1_555
C19 H25 1_555 1_555
C20 C18 1_555 1_555
H26 C20 1_555 1_555
C21 C20 1_555 1_555
H27 C21 1_555 1_555
H28 C21 1_555 1_555
C22 N2 1_555 1_555
H29 C22 1_555 1_555
C23 C22 1_555 1_555
C24 O6 1_555 1_555
H30 C24 1_555 1_555
H31 C24 1_555 1_555
H32 C24 1_555 1_555
C25 C19 1_555 1_555
C26 C25 1_555 1_555
H33 C26 1_555 1_555
C27 C26 1_555 1_555
H34 C27 1_555 1_555
C28 C27 1_555 1_555
H35 C28 1_555 1_555
C29 C28 1_555 1_555
H36 C29 1_555 1_555
C30 C25 1_555 1_555
H37 C30 1_555 1_555
C31 N2 1_555 1_555
C32 H38 1_555 1_555
C33 C32 1_555 1_555
H39 C33 1_555 1_555
H40 C33 1_555 1_555
C34 C31 1_555 1_555
H41 C34 1_555 1_555
C35 N3 1_555 1_555
H42 C35 1_555 1_555
C36 C35 1_555 1_555
C37 C36 1_555 1_555
H43 C37 1_555 1_555
C38 C37 1_555 1_555
H44 C38 1_555 1_555
C39 C38 1_555 1_555
H45 C39 1_555 1_555
C40 C39 1_555 1_555
H46 C40 1_555 1_555
C41 C36 1_555 1_555
H47 C41 1_555 1_555
C42 C32 1_555 1_555
C43 O9 1_555 1_555
H48 C43 1_555 1_555
H49 C43 1_555 1_555
H50 C43 1_555 1_555
C44 O1 1_555 1_555
H51 C44 1_555 1_555
C45 C12 1_555 1_555
H52 C45 1_555 1_555
C46 C45 1_555 1_555
H53 C46 1_555 1_555
H54 C46 1_555 1_555
C47 C46 1_555 1_555
H55 C47 1_555 1_555
H56 C47 1_555 1_555
C48 C15 1_555 1_555
H57 C48 1_555 1_555
C49 C44 1_555 1_555
H58 C49 1_555 1_555
H59 C49 1_555 1_555
C50 N3 1_555 1_555
C51 N4 1_555 1_555
H60 C51 1_555 1_555
C52 C50 1_555 1_555
H61 C52 1_555 1_555
C53 C52 1_555 1_555
H62 C53 1_555 1_555
H63 C53 1_555 1_555
C54 N4 1_555 1_555
H64 C54 1_555 1_555
C55 C54 1_555 1_555
C56 O12 1_555 1_555
H65 C56 1_555 1_555
H66 C56 1_555 1_555
H67 C56 1_555 1_555
C57 C51 1_555 1_555
C58 C57 1_555 1_555
H68 C58 1_555 1_555
C59 C58 1_555 1_555
H69 C59 1_555 1_555
C60 C59 1_555 1_555
H70 C60 1_555 1_555
C61 C60 1_555 1_555
H71 C61 1_555 1_555
C62 C57 1_555 1_555
H72 C62 1_555 1_555
O14 H73 1_555 1_555
C63 O14 1_555 1_555
H74 C63 1_555 1_555
H75 C63 1_555 1_555
H76 C63 1_555 1_555
O15 H77 1_555 1_555
H78 O15 1_555 1_555
O16 H79 1_555 1_555
H80 O16 1_555 1_555
O17 H81 1_555 1_555
H82 O17 1_555 1_555
C3 C4 1_555 1_555
C9 C10 1_555 1_555
C19 C20 1_555 1_555
C21 C22 1_555 1_555
C29 C30 1_555 1_555
C33 C34 1_555 1_555
C34 C35 1_555 1_555
C40 C41 1_555 1_555
C44 C45 1_555 1_555
C47 C48 1_555 1_555
C48 C49 1_555 1_555
C51 C52 1_555 1_555
C53 C54 1_555 1_555
C61 C62 1_555 1_555

#END
