
#######################################################################
#
#                 Cambridge Crystallographic Data Centre
#                                CCDC 
#
#######################################################################
#
# If this CIF has been generated from an entry in the Cambridge 
# Structural Database, then it will include bibliographic, chemical, 
# crystal, experimental, refinement or atomic coordinate data resulting 
# from the CCDC's data processing and validation procedures.
#
#######################################################################

data_ZUYHOS
_chemical_formula_moiety         'C19 H27 Cl1 O6'
_chemical_name_systematic        
'5-chloro-3-(3,4-dihydroxy-3,5-dimethylhept-1-en-1-yl)-7,8-dihydroxy-7-methyl-1,7,8,8a-tetrahydro-6H-isochromen-6-one unknown solvate'
_symmetry_cell_setting           orthorhombic
_symmetry_space_group_name_H-M   'P 21 21 21'
_symmetry_Int_Tables_number      19
_space_group_name_Hall           'P 2ac 2ab'
loop_
_symmetry_equiv_pos_site_id
_symmetry_equiv_pos_as_xyz
1 x,y,z
2 1/2-x,-y,1/2+z
3 -x,1/2+y,1/2-z
4 1/2+x,1/2-y,-z
_cell_length_a                   12.446(3)
_cell_length_b                   15.594(3)
_cell_length_c                   25.490(5)
_cell_angle_alpha                90
_cell_angle_beta                 90
_cell_angle_gamma                90
_cell_volume                     4947.17
_exptl_crystal_description       block
_cell_formula_units_Z            8
loop_
_atom_site_label
_atom_site_type_symbol
_atom_site_fract_x
_atom_site_fract_y
_atom_site_fract_z
Cl1 Cl 0.94857(14) 0.63764(11) 0.87922(5)
O1 O 0.7988(3) 0.5110(2) 0.92102(12)
O2 O 0.8187(2) 0.62109(19) 0.68207(10)
O3 O 1.1445(2) 0.77136(17) 0.61344(12)
H1 H 1.1656 0.7232 0.6212
O4 O 1.0805(2) 0.62800(17) 0.54992(12)
H2 H 1.0307 0.5949 0.5442
O5 O 0.7741(3) 0.39193(17) 0.82168(11)
H3 H 0.7776 0.3539 0.8439
O6 O 0.6039(2) 0.4565(2) 0.76384(13)
H4 H 0.5445 0.4787 0.7613
C1 C 0.9038(3) 0.6529(3) 0.70816(16)
C2 C 0.7665(3) 0.5388(2) 0.76052(14)
H5 H 0.8010 0.4874 0.7462
C3 C 0.8490(3) 0.5878(2) 0.79085(15)
C4 C 0.7900(3) 0.5202(3) 0.87288(16)
C5 C 0.9643(3) 0.7176(3) 0.62539(18)
H6 H 0.9008 0.6984 0.6102
C6 C 1.0469(3) 0.7154(2) 0.53758(15)
H7 H 0.9734 0.7114 0.5241
C7 C 0.9777(3) 0.6998(3) 0.67558(16)
H8 H 1.0406 0.7193 0.6913
C8 C 1.0402(3) 0.7656(3) 0.59002(16)
C9 C 0.9168(4) 0.6418(3) 0.75994(17)
H9 H 0.9727 0.6706 0.7765
C10 C 0.7299(3) 0.5940(3) 0.71475(16)
H10 H 0.6792 0.5617 0.6936
H11 H 0.6930 0.6442 0.7282
C11 C 0.7116(3) 0.4634(3) 0.84223(17)
C12 C 1.1151(3) 0.7485(3) 0.49304(17)
H12 H 1.0966 0.8091 0.4888
C13 C 0.8547(4) 0.5772(3) 0.84376(17)
C14 C 0.6729(3) 0.5109(3) 0.79333(17)
H13 H 0.6324 0.5617 0.8042
C15 C 1.2352(4) 0.7454(4) 0.5024(2)
H14 H 1.2524 0.7774 0.5335
H15 H 1.2719 0.7699 0.4729
H16 H 1.2574 0.6869 0.5068
C16 C 1.1376(5) 0.7374(5) 0.3934(2)
H17 H 1.1151 0.7029 0.3642
H18 H 1.2143 0.7339 0.3970
H19 H 1.1171 0.7959 0.3875
C17 C 1.0853(4) 0.7053(4) 0.44251(17)
H20 H 1.1017 0.6447 0.4459
H21 H 1.0081 0.7102 0.4381
C18 C 1.0023(4) 0.8541(3) 0.58063(18)
H22 H 0.9931 0.8829 0.6136
H23 H 0.9349 0.8525 0.5623
H24 H 1.0543 0.8844 0.5599
C19 C 0.6209(5) 0.4322(4) 0.8764(2)
H25 H 0.5746 0.3956 0.8562
H26 H 0.5807 0.4804 0.8891
H27 H 0.6497 0.4007 0.9055
Cl2 Cl 0.26911(16) 0.43156(9) 0.79828(6)
O7 O 0.2588(3) 0.5391(2) 0.57614(13)
H28 H 0.3190 0.5505 0.5650
O8 O 0.0002(3) 0.3921(2) 0.63888(12)
O9 O -0.3687(3) 0.38479(19) 0.66493(14)
H29 H -0.3960 0.3987 0.6929
O10 O 0.4198(3) 0.5424(2) 0.74386(17)
O11 O -0.2907(3) 0.25929(19) 0.74819(12)
H30 H -0.2893 0.3093 0.7582
O12 O 0.2512(2) 0.64179(19) 0.67208(13)
H31 H 0.2741 0.6728 0.6955
C20 C 0.1587(4) 0.4825(3) 0.64992(16)
H32 H 0.1125 0.5334 0.6504
C21 C 0.0785(5) 0.4007(3) 0.72376(18)
H33 H 0.0749 0.3843 0.7588
C22 C 0.1695(4) 0.4506(3) 0.70564(18)
C23 C -0.2713(4) 0.2563(3) 0.69253(17)
C24 C -0.0007(4) 0.3779(3) 0.69090(17)
C25 C -0.1717(4) 0.3032(3) 0.6779(2)
H34 H -0.1602 0.3112 0.6422
C26 C -0.3646(4) 0.2952(3) 0.66149(19)
H35 H -0.3465 0.2839 0.6247
C27 C -0.4766(5) 0.2536(4) 0.6689(2)
H36 H -0.4678 0.1911 0.6682
C28 C 0.4302(4) 0.6009(5) 0.6412(3)
H37 H 0.4172 0.6373 0.6115
H38 H 0.4704 0.5515 0.6302
H39 H 0.4703 0.6319 0.6672
C29 C -0.5301(5) 0.2768(5) 0.7177(3)
H40 H -0.5317 0.3381 0.7211
H41 H -0.4915 0.2526 0.7468
H42 H -0.6022 0.2550 0.7175
C30 C -0.5471(6) 0.2805(5) 0.6204(3)
H43 H -0.5602 0.3418 0.6221
H44 H -0.5069 0.2692 0.5885
C31 C -0.6499(9) 0.2364(6) 0.6172(5)
H45 H -0.6793 0.2433 0.5826
H46 H -0.6985 0.2602 0.6425
H47 H -0.6397 0.1765 0.6243
C32 C 0.3387(4) 0.5278(3) 0.7180(2)
C33 C -0.0988(4) 0.3345(3) 0.70901(19)
H48 H -0.1093 0.3291 0.7450
C34 C 0.3227(4) 0.5721(3) 0.6646(2)
C35 C 0.2546(4) 0.4733(3) 0.73610(19)
C36 C 0.2669(4) 0.5088(3) 0.6281(2)
H49 H 0.3116 0.4570 0.6270
C37 C 0.1042(4) 0.4151(3) 0.6174(2)
H50 H 0.0950 0.4362 0.5819
H51 H 0.1494 0.3644 0.6159
C38 C -0.2554(5) 0.1621(3) 0.6793(2)
H52 H -0.1951 0.1401 0.6985
H53 H -0.2424 0.1561 0.6424
H54 H -0.3188 0.1305 0.6887
loop_
_geom_bond_atom_site_label_1
_geom_bond_atom_site_label_2
_geom_bond_site_symmetry_1
_geom_bond_site_symmetry_2
Cl1 C13 1_555 1_555
O1 C4 1_555 1_555
O2 C1 1_555 1_555
O3 H1 1_555 1_555
O4 H2 1_555 1_555
O5 H3 1_555 1_555
O6 H4 1_555 1_555
C1 C7 1_555 1_555
C2 H5 1_555 1_555
C3 C2 1_555 1_555
C4 C11 1_555 1_555
C5 H6 1_555 1_555
C6 O4 1_555 1_555
H7 C6 1_555 1_555
C7 C5 1_555 1_555
H8 C7 1_555 1_555
C8 O3 1_555 1_555
C9 C1 1_555 1_555
H9 C9 1_555 1_555
C10 O2 1_555 1_555
H10 C10 1_555 1_555
H11 C10 1_555 1_555
C11 O5 1_555 1_555
C12 C6 1_555 1_555
H12 C12 1_555 1_555
C13 C3 1_555 1_555
C14 O6 1_555 1_555
H13 C14 1_555 1_555
C15 C12 1_555 1_555
H14 C15 1_555 1_555
H15 C15 1_555 1_555
H16 C15 1_555 1_555
C16 H17 1_555 1_555
H18 C16 1_555 1_555
H19 C16 1_555 1_555
C17 C12 1_555 1_555
H20 C17 1_555 1_555
H21 C17 1_555 1_555
C18 C8 1_555 1_555
H22 C18 1_555 1_555
H23 C18 1_555 1_555
H24 C18 1_555 1_555
C19 C11 1_555 1_555
H25 C19 1_555 1_555
H26 C19 1_555 1_555
H27 C19 1_555 1_555
Cl2 C35 1_555 1_555
O7 H28 1_555 1_555
O8 C24 1_555 1_555
O9 H29 1_555 1_555
O10 C32 1_555 1_555
O11 H30 1_555 1_555
O12 H31 1_555 1_555
C20 H32 1_555 1_555
C21 H33 1_555 1_555
C22 C20 1_555 1_555
C23 O11 1_555 1_555
C24 C21 1_555 1_555
C25 C23 1_555 1_555
H34 C25 1_555 1_555
C26 O9 1_555 1_555
H35 C26 1_555 1_555
C27 C26 1_555 1_555
H36 C27 1_555 1_555
C28 H37 1_555 1_555
H38 C28 1_555 1_555
H39 C28 1_555 1_555
C29 C27 1_555 1_555
H40 C29 1_555 1_555
H41 C29 1_555 1_555
H42 C29 1_555 1_555
C30 C27 1_555 1_555
H43 C30 1_555 1_555
H44 C30 1_555 1_555
C31 C30 1_555 1_555
H45 C31 1_555 1_555
H46 C31 1_555 1_555
H47 C31 1_555 1_555
C32 C34 1_555 1_555
C33 C24 1_555 1_555
H48 C33 1_555 1_555
C34 O12 1_555 1_555
C35 C22 1_555 1_555
C36 O7 1_555 1_555
H49 C36 1_555 1_555
C37 O8 1_555 1_555
H50 C37 1_555 1_555
H51 C37 1_555 1_555
C38 C23 1_555 1_555
H52 C38 1_555 1_555
H53 C38 1_555 1_555
H54 C38 1_555 1_555
C2 C10 1_555 1_555
C2 C14 1_555 1_555
C3 C9 1_555 1_555
C4 C13 1_555 1_555
C5 C8 1_555 1_555
C6 C8 1_555 1_555
C11 C14 1_555 1_555
C16 C17 1_555 1_555
C20 C36 1_555 1_555
C20 C37 1_555 1_555
C21 C22 1_555 1_555
C23 C26 1_555 1_555
C25 C33 1_555 1_555
C28 C34 1_555 1_555
C32 C35 1_555 1_555
C34 C36 1_555 1_555

#END
