
#######################################################################
#
#                 Cambridge Crystallographic Data Centre
#                                CCDC 
#
#######################################################################
#
# If this CIF has been generated from an entry in the Cambridge 
# Structural Database, then it will include bibliographic, chemical, 
# crystal, experimental, refinement or atomic coordinate data resulting 
# from the CCDC's data processing and validation procedures.
#
#######################################################################

data_ZUYMEN
_chemical_formula_moiety         'C21 H19 N1 O5'
_chemical_name_systematic        
'methyl 13-acetamido-14,15-didehydro-7,8-dihydro-6H-dibenzo[f,j][1,5]dioxacycloundecine-1-carboxylate'
_symmetry_cell_setting           monoclinic
_symmetry_space_group_name_H-M   'P 21/c'
_symmetry_Int_Tables_number      14
_space_group_name_Hall           '-P 2ybc'
loop_
_symmetry_equiv_pos_site_id
_symmetry_equiv_pos_as_xyz
1 x,y,z
2 -x,1/2+y,1/2-z
3 -x,-y,-z
4 x,1/2-y,1/2+z
_cell_length_a                   9.3725(10)
_cell_length_b                   21.712(2)
_cell_length_c                   9.3146(10)
_cell_angle_alpha                90
_cell_angle_beta                 106.094(2)
_cell_angle_gamma                90
_cell_volume                     1821.19
_cell_formula_units_Z            4
loop_
_atom_site_label
_atom_site_type_symbol
_atom_site_fract_x
_atom_site_fract_y
_atom_site_fract_z
N1 N 0.8352(3) 0.68677(12) 0.2260(3)
H1 H 0.811(2) 0.7375(10) 0.245(2)
O1 O 0.4999(2) 0.59867(9) 0.4757(2)
O2 O 0.2901(2) 0.74974(9) 0.4180(2)
O3 O 0.7589(3) 0.83210(12) 0.2938(3)
O4 O 0.7508(3) 0.93145(11) 0.3507(3)
O5 O 1.0144(3) 0.64709(14) 0.1319(3)
C1 C 0.3639(3) 0.80528(14) 0.4321(3)
C2 C 0.2948(4) 0.85760(16) 0.4657(4)
H2 H 0.2054 0.8544 0.4901
C3 C 0.3593(4) 0.91397(15) 0.4627(4)
H3 H 0.3141 0.9490 0.4873
C4 C 0.4891(4) 0.91950(14) 0.4242(4)
H4 H 0.5296 0.9584 0.4202
C5 C 0.5622(3) 0.86755(13) 0.3906(3)
C6 C 0.4995(3) 0.80919(13) 0.3991(3)
C7 C 0.5674(3) 0.75259(14) 0.3740(3)
C8 C 0.6104(3) 0.70208(14) 0.3601(3)
C9 C 0.6657(3) 0.64134(13) 0.3446(3)
C10 C 0.6057(4) 0.59082(14) 0.3997(3)
C11 C 0.6599(4) 0.53253(15) 0.3898(4)
H5 H 0.6189 0.4986 0.4245
C12 C 0.7757(4) 0.52546(16) 0.3276(5)
H6 H 0.8142 0.4862 0.3234
C13 C 0.8373(4) 0.57446(16) 0.2709(4)
H7 H 0.9149 0.5682 0.2283
C14 C 0.7808(3) 0.63332(14) 0.2787(3)
C15 C 0.6965(4) 0.87312(15) 0.3424(4)
C16 C 0.8833(5) 0.9391(2) 0.3032(6)
H8 H 0.9662 0.9215 0.3765
H9 H 0.9010 0.9822 0.2925
H10 H 0.8711 0.9187 0.2091
C17 C 0.3367(3) 0.70852(13) 0.5439(3)
H11 H 0.2988 0.7225 0.6252
H12 H 0.4443 0.7072 0.5791
C18 C 0.2763(3) 0.64568(14) 0.4927(4)
H13 H 0.1711 0.6492 0.4423
H14 H 0.2869 0.6195 0.5794
C19 C 0.3529(4) 0.61547(14) 0.3885(4)
H15 H 0.2984 0.5792 0.3432
H16 H 0.3583 0.6438 0.3096
C20 C 0.9432(4) 0.68997(17) 0.1546(4)
C21 C 0.9763(4) 0.75444(18) 0.1153(4)
H17 H 1.0506 0.7722 0.1973
H18 H 0.8874 0.7788 0.0953
H19 H 1.0121 0.7536 0.0282
loop_
_geom_bond_atom_site_label_1
_geom_bond_atom_site_label_2
_geom_bond_site_symmetry_1
_geom_bond_site_symmetry_2
N1 H1 1_555 1_555
O1 C10 1_555 1_555
O2 C1 1_555 1_555
O3 C15 1_555 1_555
O4 C15 1_555 1_555
O5 C20 1_555 1_555
C1 C2 1_555 1_555
C2 H2 1_555 1_555
C3 C2 1_555 1_555
H3 C3 1_555 1_555
C4 C3 1_555 1_555
H4 C4 1_555 1_555
C5 C4 1_555 1_555
C6 C1 1_555 1_555
C7 C6 1_555 1_555
C8 C7 1_555 1_555
C9 C8 1_555 1_555
C10 C9 1_555 1_555
C11 C10 1_555 1_555
H5 C11 1_555 1_555
C12 C11 1_555 1_555
H6 C12 1_555 1_555
C13 C12 1_555 1_555
H7 C13 1_555 1_555
C14 N1 1_555 1_555
C15 C5 1_555 1_555
C16 O4 1_555 1_555
H8 C16 1_555 1_555
H9 C16 1_555 1_555
H10 C16 1_555 1_555
C17 O2 1_555 1_555
H11 C17 1_555 1_555
H12 C17 1_555 1_555
C18 C17 1_555 1_555
H13 C18 1_555 1_555
H14 C18 1_555 1_555
C19 O1 1_555 1_555
H15 C19 1_555 1_555
H16 C19 1_555 1_555
C20 N1 1_555 1_555
C21 C20 1_555 1_555
H17 C21 1_555 1_555
H18 C21 1_555 1_555
H19 C21 1_555 1_555
C5 C6 1_555 1_555
C9 C14 1_555 1_555
C13 C14 1_555 1_555
C18 C19 1_555 1_555

#END
