
#######################################################################
#
#                 Cambridge Crystallographic Data Centre
#                                CCDC 
#
#######################################################################
#
# If this CIF has been generated from an entry in the Cambridge 
# Structural Database, then it will include bibliographic, chemical, 
# crystal, experimental, refinement or atomic coordinate data resulting 
# from the CCDC's data processing and validation procedures.
#
#######################################################################

data_ZUYMIR
_chemical_formula_moiety         'C19 H17 N1 O4'
_chemical_name_systematic        
'methyl 13-amino-14,15-didehydro-7,8-dihydro-6H-dibenzo[f,j][1,5]dioxacycloundecine-1-carboxylate'
_symmetry_cell_setting           monoclinic
_symmetry_space_group_name_H-M   'P 21/c'
_symmetry_Int_Tables_number      14
_space_group_name_Hall           '-P 2ybc'
loop_
_symmetry_equiv_pos_site_id
_symmetry_equiv_pos_as_xyz
1 x,y,z
2 -x,1/2+y,1/2-z
3 -x,-y,-z
4 x,1/2-y,1/2+z
_cell_length_a                   22.0519(6)
_cell_length_b                   11.1843(3)
_cell_length_c                   13.4878(3)
_cell_angle_alpha                90
_cell_angle_beta                 100.783(2)
_cell_angle_gamma                90
_cell_volume                     3267.83
_cell_formula_units_Z            8
loop_
_atom_site_label
_atom_site_type_symbol
_atom_site_fract_x
_atom_site_fract_y
_atom_site_fract_z
N1 N 0.26936(17) 0.6011(3) 0.5268(2)
H1 H 0.2716 0.6689 0.5745
H2 H 0.2295 0.5798 0.4834
O1 O 0.23808(12) 0.2772(2) 0.16744(15)
O2 O 0.36448(10) 0.27254(19) 0.38608(15)
O3 O 0.02221(16) 0.4486(4) 0.3433(3)
O4 O 0.11834(13) 0.4895(2) 0.4079(2)
C1 C 0.3216(2) 0.5366(3) 0.5208(2)
C2 C 0.3796(3) 0.5596(4) 0.5785(3)
H3 H 0.3838 0.6230 0.6238
C3 C 0.4299(3) 0.4949(6) 0.5719(4)
H4 H 0.4676 0.5146 0.6119
C4 C 0.42616(18) 0.3990(4) 0.5061(3)
H5 H 0.4610 0.3539 0.5019
C5 C 0.36990(16) 0.3718(3) 0.4473(2)
C6 C 0.31722(15) 0.4390(3) 0.45341(19)
C7 C 0.26008(15) 0.4105(2) 0.3905(2)
C8 C 0.21248(15) 0.3897(3) 0.3349(2)
C9 C 0.16182(15) 0.3534(3) 0.2580(2)
C10 C 0.09902(17) 0.3744(3) 0.2589(3)
C11 C 0.05430(18) 0.3327(4) 0.1787(4)
H6 H 0.0127 0.3467 0.1781
C12 C 0.0723(3) 0.2709(4) 0.1006(4)
H7 H 0.0423 0.2423 0.0483
C13 C 0.1329(2) 0.2506(3) 0.0981(3)
H8 H 0.1441 0.2096 0.0443
C14 C 0.17746(18) 0.2913(3) 0.1758(3)
C15 C 0.26902(19) 0.1762(3) 0.2183(3)
H9 H 0.2545 0.1032 0.1827
H10 H 0.2608 0.1710 0.2863
C16 C 0.33717(17) 0.1916(3) 0.2212(3)
H11 H 0.3586 0.1205 0.2503
H12 H 0.3443 0.1995 0.1527
C17 C 0.36353(15) 0.2978(3) 0.2809(2)
H13 H 0.4051 0.3133 0.2699
H14 H 0.3384 0.3679 0.2601
C18 C 0.0756(2) 0.4385(4) 0.3390(4)
C19 C 0.0987(2) 0.5585(4) 0.4876(3)
H15 H 0.0794 0.6312 0.4600
H16 H 0.1339 0.5772 0.5387
H17 H 0.0697 0.5125 0.5168
N2 N 0.34543(15) 1.0776(3) 0.5272(2)
H18 H 0.3010 1.0615 0.5240
H19 H 0.3585 1.1423 0.4858
O5 O 0.23059(12) 0.7730(2) 0.81189(16)
O6 O 0.39522(12) 0.7550(2) 0.76053(17)
O7 O 0.19648(13) 1.0084(3) 0.47153(18)
O8 O 0.09550(12) 0.9823(2) 0.4187(2)
C20 C 0.38931(18) 1.0095(3) 0.5895(2)
C21 C 0.4526(2) 1.0307(4) 0.5932(3)
H20 H 0.4659 1.0917 0.5556
C22 C 0.4944(2) 0.9575(6) 0.6547(4)
H21 H 0.5364 0.9697 0.6574
C23 C 0.4761(2) 0.8684(5) 0.7111(3)
H22 H 0.5053 0.8206 0.7515
C24 C 0.41488(19) 0.8496(4) 0.7082(2)
C25 C 0.37116(16) 0.9203(3) 0.6465(2)
C26 C 0.30679(19) 0.8992(3) 0.6445(2)
C27 C 0.25337(17) 0.8878(3) 0.6407(2)
C28 C 0.19097(17) 0.8612(3) 0.6496(2)
C29 C 0.13896(16) 0.8962(3) 0.5743(3)
C30 C 0.0819(2) 0.8664(3) 0.5904(3)
H23 H 0.0477 0.8890 0.5428
C31 C 0.0727(2) 0.8045(4) 0.6735(4)
H24 H 0.0327 0.7871 0.6819
C32 C 0.1226(2) 0.7673(4) 0.7459(3)
H25 H 0.1161 0.7217 0.8006
C33 C 0.1819(2) 0.7984(3) 0.7360(3)
C34 C 0.2690(2) 0.6729(3) 0.7978(3)
H26 H 0.2758 0.6719 0.7288
H27 H 0.2486 0.5990 0.8099
C35 C 0.3307(2) 0.6823(4) 0.8704(3)
H28 H 0.3229 0.6918 0.9384
H29 H 0.3531 0.6080 0.8683
C36 C 0.3704(2) 0.7832(4) 0.8485(2)
H30 H 0.3462 0.8560 0.8372
H31 H 0.4038 0.7959 0.9055
C37 C 0.1492(2) 0.9669(3) 0.4871(3)
C38 C 0.1024(2) 1.0571(4) 0.3336(4)
H32 H 0.1323 1.1184 0.3558
H33 H 0.0635 1.0932 0.3057
H34 H 0.1160 1.0091 0.2829
loop_
_geom_bond_atom_site_label_1
_geom_bond_atom_site_label_2
_geom_bond_site_symmetry_1
_geom_bond_site_symmetry_2
N1 H1 1_555 1_555
H2 N1 1_555 1_555
O1 C14 1_555 1_555
O2 C5 1_555 1_555
O3 C18 1_555 1_555
O4 C18 1_555 1_555
C1 N1 1_555 1_555
C2 C1 1_555 1_555
H3 C2 1_555 1_555
C3 C2 1_555 1_555
H4 C3 1_555 1_555
C4 C3 1_555 1_555
H5 C4 1_555 1_555
C5 C4 1_555 1_555
C6 C1 1_555 1_555
C7 C6 1_555 1_555
C8 C7 1_555 1_555
C9 C8 1_555 1_555
C10 C9 1_555 1_555
C11 C10 1_555 1_555
H6 C11 1_555 1_555
C12 C11 1_555 1_555
H7 C12 1_555 1_555
C13 C12 1_555 1_555
H8 C13 1_555 1_555
C14 C9 1_555 1_555
C15 O1 1_555 1_555
H9 C15 1_555 1_555
H10 C15 1_555 1_555
C16 C15 1_555 1_555
H11 C16 1_555 1_555
H12 C16 1_555 1_555
C17 O2 1_555 1_555
H13 C17 1_555 1_555
H14 C17 1_555 1_555
C18 C10 1_555 1_555
C19 O4 1_555 1_555
H15 C19 1_555 1_555
H16 C19 1_555 1_555
H17 C19 1_555 1_555
N2 H18 1_555 1_555
H19 N2 1_555 1_555
O5 C33 1_555 1_555
O6 C24 1_555 1_555
O7 C37 1_555 1_555
O8 C37 1_555 1_555
C20 N2 1_555 1_555
C21 C20 1_555 1_555
H20 C21 1_555 1_555
C22 C21 1_555 1_555
H21 C22 1_555 1_555
C23 C22 1_555 1_555
H22 C23 1_555 1_555
C24 C23 1_555 1_555
C25 C20 1_555 1_555
C26 C25 1_555 1_555
C27 C26 1_555 1_555
C28 C27 1_555 1_555
C29 C28 1_555 1_555
C30 C29 1_555 1_555
H23 C30 1_555 1_555
C31 C30 1_555 1_555
H24 C31 1_555 1_555
C32 C31 1_555 1_555
H25 C32 1_555 1_555
C33 C28 1_555 1_555
C34 O5 1_555 1_555
H26 C34 1_555 1_555
H27 C34 1_555 1_555
C35 C34 1_555 1_555
H28 C35 1_555 1_555
H29 C35 1_555 1_555
C36 O6 1_555 1_555
H30 C36 1_555 1_555
H31 C36 1_555 1_555
C37 C29 1_555 1_555
C38 O8 1_555 1_555
H32 C38 1_555 1_555
H33 C38 1_555 1_555
H34 C38 1_555 1_555
C5 C6 1_555 1_555
C13 C14 1_555 1_555
C16 C17 1_555 1_555
C24 C25 1_555 1_555
C32 C33 1_555 1_555
C35 C36 1_555 1_555

#END
