
#######################################################################
#
#                 Cambridge Crystallographic Data Centre
#                                CCDC 
#
#######################################################################
#
# If this CIF has been generated from an entry in the Cambridge 
# Structural Database, then it will include bibliographic, chemical, 
# crystal, experimental, refinement or atomic coordinate data resulting 
# from the CCDC's data processing and validation procedures.
#
#######################################################################

data_ZUZCOO
_chemical_formula_moiety         'C21 H28 O4'
_chemical_name_systematic        
1-(3-Hydroxy-8-isopropyl-1-methoxy-5a-methyl-5a,8,9,9a-tetrahydrodibenzo[b,d]furan-4-yl)-2-methylpropan-1-one
_symmetry_cell_setting           monoclinic
_symmetry_space_group_name_H-M   'P 21'
_symmetry_Int_Tables_number      4
_space_group_name_Hall           'P 2yb'
loop_
_symmetry_equiv_pos_site_id
_symmetry_equiv_pos_as_xyz
1 x,y,z
2 -x,1/2+y,-z
_cell_length_a                   8.8562(2)
_cell_length_b                   9.9924(3)
_cell_length_c                   11.4351(3)
_cell_angle_alpha                90
_cell_angle_beta                 105.077(3)
_cell_angle_gamma                90
_cell_volume                     977.112
_exptl_crystal_colour            colorless
_exptl_crystal_description       block
_cell_formula_units_Z            2
_exptl_crystal_recrystallization_method methanol
loop_
_atom_site_label
_atom_site_type_symbol
_atom_site_fract_x
_atom_site_fract_y
_atom_site_fract_z
O1 O 0.3247(2) 0.7947(2) 0.12696(16)
O2 O 0.1402(2) 0.5438(2) -0.40125(17)
O3 O 0.0251(2) 0.5736(2) -0.22482(18)
H1 H 0.0269 0.5557 -0.2944
O4 O 0.54871(19) 0.7360(2) -0.19071(16)
C1 C 0.3067(3) 0.7424(3) 0.0146(2)
C2 C 0.1705(3) 0.6812(3) -0.0513(2)
H2 H 0.0857 0.6724 -0.0180
C3 C 0.1606(3) 0.6331(3) -0.1668(2)
C4 C 0.2857(3) 0.6456(3) -0.2234(2)
C5 C 0.7619(3) 0.6449(3) -0.0430(3)
H3 H 0.8086 0.6033 -0.0975
C6 C 0.7768(3) 0.5866(3) 0.0635(3)
H4 H 0.8271 0.5042 0.0765
C7 C 0.7179(3) 0.6444(3) 0.1652(2)
H5 H 0.6192 0.5997 0.1642
C8 C 0.6829(3) 0.7929(3) 0.1406(2)
H6 H 0.6242 0.8252 0.1956
H7 H 0.7810 0.8416 0.1578
C9 C 0.4197(3) 0.7097(3) -0.1508(2)
C10 C 0.6760(3) 0.7722(3) -0.0820(2)
C11 C 0.5909(3) 0.8231(3) 0.0112(2)
H8 H 0.5761 0.9200 0.0018
C12 C 0.4343(3) 0.7544(2) -0.0350(2)
C13 C 0.2637(3) 0.6002(3) -0.3477(2)
C14 C 0.3878(4) 0.6178(4) -0.4160(3)
H9 H 0.4400 0.7037 -0.3921
C15 C 0.3127(5) 0.6220(7) -0.5517(3)
H10 H 0.2370 0.6929 -0.5696
H11 H 0.3918 0.6376 -0.5938
H12 H 0.2619 0.5382 -0.5774
C16 C 0.5077(4) 0.5093(4) -0.3809(4)
H13 H 0.5861 0.5207 -0.4243
H14 H 0.5556 0.5139 -0.2954
H15 H 0.4582 0.4238 -0.4004
C17 C 0.7742(3) 0.8768(3) -0.1256(3)
H16 H 0.7131 0.9564 -0.1494
H17 H 0.8647 0.8978 -0.0612
H18 H 0.8066 0.8422 -0.1935
C18 C 0.8330(3) 0.6178(3) 0.2901(3)
H19 H 0.9355 0.6528 0.2876
C19 C 0.8519(5) 0.4686(4) 0.3188(3)
H20 H 0.8825 0.4233 0.2546
H21 H 0.9308 0.4560 0.3934
H22 H 0.7544 0.4328 0.3265
C20 C 0.7846(4) 0.6883(4) 0.3923(3)
H23 H 0.7724 0.7822 0.3749
H24 H 0.6872 0.6519 0.3998
H25 H 0.8636 0.6752 0.4668
C21 C 0.1880(3) 0.7983(4) 0.1724(3)
H26 H 0.2143 0.8369 0.2520
H27 H 0.1086 0.8514 0.1194
H28 H 0.1497 0.7089 0.1762
loop_
_geom_bond_atom_site_label_1
_geom_bond_atom_site_label_2
_geom_bond_site_symmetry_1
_geom_bond_site_symmetry_2
O1 C1 1_555 1_555
O2 C13 1_555 1_555
O3 H1 1_555 1_555
O4 C9 1_555 1_555
C1 C2 1_555 1_555
C2 H2 1_555 1_555
C3 O3 1_555 1_555
C4 C3 1_555 1_555
C5 H3 1_555 1_555
C6 C5 1_555 1_555
H4 C6 1_555 1_555
C7 C6 1_555 1_555
H5 C7 1_555 1_555
C8 C7 1_555 1_555
H6 C8 1_555 1_555
H7 C8 1_555 1_555
C9 C4 1_555 1_555
C10 O4 1_555 1_555
C11 C8 1_555 1_555
H8 C11 1_555 1_555
C12 C1 1_555 1_555
C13 C4 1_555 1_555
C14 C13 1_555 1_555
H9 C14 1_555 1_555
C15 C14 1_555 1_555
H10 C15 1_555 1_555
H11 C15 1_555 1_555
H12 C15 1_555 1_555
C16 C14 1_555 1_555
H13 C16 1_555 1_555
H14 C16 1_555 1_555
H15 C16 1_555 1_555
C17 C10 1_555 1_555
H16 C17 1_555 1_555
H17 C17 1_555 1_555
H18 C17 1_555 1_555
C18 C7 1_555 1_555
H19 C18 1_555 1_555
C19 C18 1_555 1_555
H20 C19 1_555 1_555
H21 C19 1_555 1_555
H22 C19 1_555 1_555
C20 C18 1_555 1_555
H23 C20 1_555 1_555
H24 C20 1_555 1_555
H25 C20 1_555 1_555
C21 O1 1_555 1_555
H26 C21 1_555 1_555
H27 C21 1_555 1_555
H28 C21 1_555 1_555
C2 C3 1_555 1_555
C5 C10 1_555 1_555
C9 C12 1_555 1_555
C10 C11 1_555 1_555
C11 C12 1_555 1_555

#END
