
#######################################################################
#
#                 Cambridge Crystallographic Data Centre
#                                CCDC 
#
#######################################################################
#
# If this CIF has been generated from an entry in the Cambridge 
# Structural Database, then it will include bibliographic, chemical, 
# crystal, experimental, refinement or atomic coordinate data resulting 
# from the CCDC's data processing and validation procedures.
#
#######################################################################

data_ZZZAWJ14
_chemical_formula_moiety         'C14 H9 N1 O2'
_chemical_name_systematic        2-Phenyl-1H-isoindole-1,3(2H)-dione
_symmetry_cell_setting           orthorhombic
_symmetry_space_group_name_H-M   'P c a b'
_symmetry_Int_Tables_number      61
_space_group_name_Hall           '-P 2bc 2ac'
loop_
_symmetry_equiv_pos_site_id
_symmetry_equiv_pos_as_xyz
1 x,y,z
2 -x,1/2-y,1/2+z
3 1/2+x,-y,1/2-z
4 1/2-x,1/2+y,-z
5 -x,-y,-z
6 x,1/2+y,1/2-z
7 1/2-x,y,1/2+z
8 1/2+x,1/2-y,z
_cell_length_a                   7.527(3)
_cell_length_b                   11.536(4)
_cell_length_c                   23.535(7)
_cell_angle_alpha                90
_cell_angle_beta                 90
_cell_angle_gamma                90
_cell_volume                     2043.58
_exptl_crystal_colour            yellow
_exptl_crystal_description       block
_cell_formula_units_Z            8
loop_
_atom_site_label
_atom_site_type_symbol
_atom_site_fract_x
_atom_site_fract_y
_atom_site_fract_z
O1 O 0.2051(3) 0.44246(16) 0.39181(7)
O2 O 0.5052(3) 0.78168(16) 0.41066(7)
N1 N 0.3657(3) 0.61189(18) 0.38590(8)
C1 C 0.4874(4) 0.5411(3) 0.23923(11)
H1 H 0.5433 0.4802 0.2188
C2 C 0.3446(4) 0.7241(2) 0.24025(11)
H2 H 0.3028 0.7905 0.2205
C3 C 0.4662(4) 0.5325(2) 0.29683(10)
H3 H 0.5088 0.4662 0.3165
C4 C 0.3206(3) 0.7159(2) 0.29801(10)
H4 H 0.2613 0.7758 0.3182
C5 C 0.4281(4) 0.6373(3) 0.21100(11)
H5 H 0.4449 0.6439 0.1711
C6 C 0.2865(3) 0.5524(2) 0.47518(10)
C7 C 0.4275(3) 0.6945(2) 0.42365(10)
C8 C 0.3831(3) 0.6202(2) 0.32623(10)
C9 C 0.3784(3) 0.6544(2) 0.48090(9)
C10 C 0.2526(4) 0.5430(2) 0.57429(11)
H6 H 0.2097 0.5049 0.6073
C11 C 0.2748(3) 0.5237(2) 0.41421(10)
C12 C 0.4104(4) 0.7028(2) 0.53307(10)
H7 H 0.4757 0.7728 0.5369
C13 C 0.3438(4) 0.6453(2) 0.57972(10)
H8 H 0.3615 0.6773 0.6165
C14 C 0.2222(4) 0.4947(2) 0.52182(10)
H9 H 0.1590 0.4239 0.5180
loop_
_geom_bond_atom_site_label_1
_geom_bond_atom_site_label_2
_geom_bond_site_symmetry_1
_geom_bond_site_symmetry_2
O1 C11 1_555 1_555
O2 C7 1_555 1_555
N1 C7 1_555 1_555
C1 H1 1_555 1_555
C2 H2 1_555 1_555
C3 C1 1_555 1_555
H3 C3 1_555 1_555
C4 C2 1_555 1_555
H4 C4 1_555 1_555
C5 C1 1_555 1_555
H5 C5 1_555 1_555
C6 C9 1_555 1_555
C7 C9 1_555 1_555
C8 N1 1_555 1_555
C9 C12 1_555 1_555
C10 H6 1_555 1_555
C11 N1 1_555 1_555
C12 H7 1_555 1_555
C13 C10 1_555 1_555
H8 C13 1_555 1_555
C14 C6 1_555 1_555
H9 C14 1_555 1_555
C2 C5 1_555 1_555
C3 C8 1_555 1_555
C4 C8 1_555 1_555
C6 C11 1_555 1_555
C10 C14 1_555 1_555
C12 C13 1_555 1_555

#END
