
#######################################################################
#
#                 Cambridge Crystallographic Data Centre
#                                CCDC 
#
#######################################################################
#
# If this CIF has been generated from an entry in the Cambridge 
# Structural Database, then it will include bibliographic, chemical, 
# crystal, experimental, refinement or atomic coordinate data resulting 
# from the CCDC's data processing and validation procedures.
#
#######################################################################

data_ZZZEQK01
_chemical_formula_moiety         'C14 H14 O4 S2'
_chemical_name_systematic        
'1,2-bis(4-Methylphenyl)disulfane 1,1,2,2-tetraoxide'
_symmetry_cell_setting           triclinic
_symmetry_space_group_name_H-M   'P -1'
_symmetry_Int_Tables_number      2
_space_group_name_Hall           '-P 1'
loop_
_symmetry_equiv_pos_site_id
_symmetry_equiv_pos_as_xyz
1 x,y,z
2 -x,-y,-z
_cell_length_a                   7.165(4)
_cell_length_b                   7.205(4)
_cell_length_c                   7.777(4)
_cell_angle_alpha                82.28(2)
_cell_angle_beta                 68.940(19)
_cell_angle_gamma                68.18(2)
_cell_volume                     347.819
_exptl_crystal_colour            colorless
_exptl_crystal_description       block
_cell_formula_units_Z            1
loop_
_atom_site_label
_atom_site_type_symbol
_atom_site_fract_x
_atom_site_fract_y
_atom_site_fract_z
S1 S 0.33091(6) 0.08453(6) 0.07013(5)
O1 O 0.2185(2) -0.0475(2) 0.08113(19)
O2 O 0.3223(2) 0.1624(2) 0.23461(18)
C1 C 0.2808(3) 0.2772(3) -0.0887(3)
C2 C 0.2418(3) 0.2402(3) -0.2419(3)
H1 H 0.243(4) 0.115(4) -0.262(3)
C3 C 0.2174(3) 0.3891(3) -0.3727(3)
H2 H 0.194(4) 0.363(4) -0.476(4)
C4 C 0.2291(3) 0.5732(3) -0.3530(3)
C5 C 0.2650(3) 0.6068(3) -0.1965(3)
H3 H 0.272(4) 0.737(4) -0.180(4)
C6 C 0.2918(3) 0.4594(3) -0.0647(3)
H4 H 0.314(4) 0.483(4) 0.041(4)
C7 C 0.2042(4) 0.7336(4) -0.4970(3)
H5 H 0.288(7) 0.815(6) -0.501(6)
H6 H 0.281(7) 0.667(6) -0.624(6)
H7 H 0.063(7) 0.801(6) -0.487(5)
S1A S 0.66909(6) -0.08453(6) -0.07013(5)
O1A O 0.7815(2) 0.0475(2) -0.08113(19)
O2A O 0.6777(2) -0.1624(2) -0.23461(18)
C1A C 0.7192(3) -0.2772(3) 0.0887(3)
C2A C 0.7582(3) -0.2402(3) 0.2419(3)
H1A H 0.757(4) -0.115(4) 0.262(3)
C3A C 0.7826(3) -0.3891(3) 0.3727(3)
H2A H 0.806(4) -0.363(4) 0.476(4)
C4A C 0.7709(3) -0.5732(3) 0.3530(3)
C5A C 0.7350(3) -0.6068(3) 0.1965(3)
H3A H 0.728(4) -0.737(4) 0.180(4)
C6A C 0.7082(3) -0.4594(3) 0.0647(3)
H4A H 0.686(4) -0.483(4) -0.041(4)
C7A C 0.7958(4) -0.7336(4) 0.4970(3)
H5A H 0.712(7) -0.815(6) 0.501(6)
H6A H 0.719(7) -0.667(6) 0.624(6)
H7A H 0.937(7) -0.801(6) 0.487(5)
loop_
_geom_bond_atom_site_label_1
_geom_bond_atom_site_label_2
_geom_bond_site_symmetry_1
_geom_bond_site_symmetry_2
S1 O1 1_555 1_555
O2 S1 1_555 1_555
C1 S1 1_555 1_555
C2 C1 1_555 1_555
H1 C2 1_555 1_555
C3 C2 1_555 1_555
H2 C3 1_555 1_555
C4 C3 1_555 1_555
C5 C4 1_555 1_555
H3 C5 1_555 1_555
C6 C1 1_555 1_555
H4 C6 1_555 1_555
C7 C4 1_555 1_555
H5 C7 1_555 1_555
H6 C7 1_555 1_555
H7 C7 1_555 1_555
S1A S1 1_555 1_555
O1A S1A 1_555 1_555
O2A S1A 1_555 1_555
C1A S1A 1_555 1_555
C2A C1A 1_555 1_555
H1A C2A 1_555 1_555
C3A C2A 1_555 1_555
H2A C3A 1_555 1_555
C4A C3A 1_555 1_555
C5A C4A 1_555 1_555
H3A C5A 1_555 1_555
C6A C1A 1_555 1_555
H4A C6A 1_555 1_555
C7A C4A 1_555 1_555
H5A C7A 1_555 1_555
H6A C7A 1_555 1_555
H7A C7A 1_555 1_555
C5 C6 1_555 1_555
C5A C6A 1_555 1_555

#END
