
#######################################################################
#
#                 Cambridge Crystallographic Data Centre
#                                CCDC 
#
#######################################################################
#
# If this CIF has been generated from an entry in the Cambridge 
# Structural Database, then it will include bibliographic, chemical, 
# crystal, experimental, refinement or atomic coordinate data resulting 
# from the CCDC's data processing and validation procedures.
#
#######################################################################

data_ZZZPUS19
_chemical_name_common            Tolbutamide
_chemical_formula_moiety         'C12 H18 N2 O3 S1'
_chemical_name_systematic        N-(butylcarbamoyl)-4-methylbenzenesulfonamide
_chemical_properties_biological  'antidiabetic drug'
_symmetry_cell_setting           orthorhombic
_symmetry_space_group_name_H-M   'P n a 21'
_symmetry_Int_Tables_number      33
_space_group_name_Hall           'P 2c -2n'
loop_
_symmetry_equiv_pos_site_id
_symmetry_equiv_pos_as_xyz
1 x,y,z
2 -x,-y,1/2+z
3 1/2+x,1/2-y,z
4 1/2-x,1/2+y,1/2+z
_cell_length_a                   19.7525(3)
_cell_length_b                   7.7998(1)
_cell_length_c                   9.0583(1)
_cell_angle_alpha                90
_cell_angle_beta                 90
_cell_angle_gamma                90
_cell_volume                     1395.57
_exptl_crystal_colour            colorless
_exptl_crystal_description       block
_cell_formula_units_Z            4
_exptl_crystal_recrystallization_method 'ethyl acetate'
loop_
_atom_site_label
_atom_site_type_symbol
_atom_site_fract_x
_atom_site_fract_y
_atom_site_fract_z
C1 C 0.25335(17) 0.4806(4) 0.3453(4)
H1 H 0.2713 0.5285 0.2533
H2 H 0.2907 0.4590 0.4141
H3 H 0.2216 0.5622 0.3897
C2 C 0.21726(13) 0.3152(3) 0.3130(3)
C3 C 0.22347(15) 0.1749(3) 0.4063(3)
H4 H 0.2526 0.1818 0.4896
C4 C 0.18779(13) 0.0246(3) 0.3799(3)
H5 H 0.1917 -0.0700 0.4454
C5 C 0.14656(11) 0.0143(3) 0.2573(2)
C6 C 0.14046(13) 0.1527(3) 0.1607(3)
H6 H 0.1125 0.1443 0.0758
C7 C 0.17558(14) 0.3021(3) 0.1900(3)
H7 H 0.1712 0.3971 0.1251
C8 C -0.01014(10) 0.0090(2) 0.2360(2)
C9 C -0.08563(11) 0.2541(3) 0.2189(3)
H8 H -0.1054 0.2175 0.3143
H9 H -0.1234 0.2858 0.1524
C10 C -0.04110(14) 0.4101(3) 0.2442(3)
H10 H -0.0224 0.4484 0.1484
H11 H -0.0026 0.3773 0.3083
C11 C -0.07894(19) 0.5587(4) 0.3153(4)
H12 H -0.1019 0.5168 0.4055
H13 H -0.0458 0.6471 0.3457
C12 C -0.1303(2) 0.6394(5) 0.2165(7)
H14 H -0.1088 0.6728 0.1234
H15 H -0.1492 0.7413 0.2647
H16 H -0.1667 0.5573 0.1966
O1 O 0.13163(9) -0.2655(2) 0.09963(17)
O2 O 0.09375(8) -0.2663(2) 0.35858(17)
O3 O -0.00666(9) 0.0151(2) 0.37238(18)
S1 S 0.10179(2) -0.17670(6) 0.22219(7)
N1 N 0.02785(10) -0.1130(2) 0.1581(2)
N2 N -0.04825(10) 0.1104(2) 0.1542(2)
H17 H -0.0426(14) 0.108(4) 0.066(4)
H18 H 0.0239(13) -0.109(4) 0.067(4)
loop_
_geom_bond_atom_site_label_1
_geom_bond_atom_site_label_2
_geom_bond_site_symmetry_1
_geom_bond_site_symmetry_2
C1 H1 1_555 1_555
H2 C1 1_555 1_555
H3 C1 1_555 1_555
C2 C1 1_555 1_555
C3 C2 1_555 1_555
H4 C3 1_555 1_555
C4 C3 1_555 1_555
H5 C4 1_555 1_555
C5 C4 1_555 1_555
C6 C5 1_555 1_555
H6 C6 1_555 1_555
C7 C2 1_555 1_555
H7 C7 1_555 1_555
C8 O3 1_555 1_555
C9 H8 1_555 1_555
H9 C9 1_555 1_555
C10 C9 1_555 1_555
H10 C10 1_555 1_555
H11 C10 1_555 1_555
C11 C10 1_555 1_555
H12 C11 1_555 1_555
H13 C11 1_555 1_555
C12 C11 1_555 1_555
H14 C12 1_555 1_555
H15 C12 1_555 1_555
H16 C12 1_555 1_555
O1 S1 1_555 1_555
O2 S1 1_555 1_555
S1 C5 1_555 1_555
N1 C8 1_555 1_555
N2 C8 1_555 1_555
H17 N2 1_555 1_555
H18 N1 1_555 1_555
C6 C7 1_555 1_555
C9 N2 1_555 1_555
S1 N1 1_555 1_555

#END
