
#######################################################################
#
#                 Cambridge Crystallographic Data Centre
#                                CCDC 
#
#######################################################################
#
# If this CIF has been generated from an entry in the Cambridge 
# Structural Database, then it will include bibliographic, chemical, 
# crystal, experimental, refinement or atomic coordinate data resulting 
# from the CCDC's data processing and validation procedures.
#
#######################################################################

data_ZZZPUS13
_chemical_name_common            'Tolbutamide form III'
_chemical_formula_moiety         'C12 H18 N2 O3 S1'
_chemical_name_systematic        
N-((Butylamino)-carbonyl)-4-methyl-benzenesulfonamide
_chemical_properties_biological  'antidiabetic drug'
_symmetry_cell_setting           monoclinic
_symmetry_space_group_name_H-M   'P 21/n'
_symmetry_Int_Tables_number      14
_space_group_name_Hall           '-P 2yn'
loop_
_symmetry_equiv_pos_site_id
_symmetry_equiv_pos_as_xyz
1 x,y,z
2 1/2-x,1/2+y,1/2-z
3 -x,-y,-z
4 1/2+x,1/2-y,1/2+z
_cell_length_a                   11.8100(6)
_cell_length_b                   9.0587(3)
_cell_length_c                   13.9713(6)
_cell_angle_alpha                90
_cell_angle_beta                 104.491(5)
_cell_angle_gamma                90
_cell_volume                     1447.14
_exptl_crystal_colour            colorless
_exptl_crystal_description       plate
_cell_formula_units_Z            4
loop_
_atom_site_label
_atom_site_type_symbol
_atom_site_fract_x
_atom_site_fract_y
_atom_site_fract_z
C1 C 0.8652(3) 0.8872(5) 0.3474(3)
H1 H 0.9047 0.7939 0.3521
H2 H 0.8688 0.9237 0.4126
H3 H 0.9025 0.9564 0.3131
C2 C 0.7403(3) 0.8683(3) 0.2921(2)
C3 C 0.6647(3) 0.7812(3) 0.3282(2)
H4 H 0.6920 0.7349 0.3890
C4 C 0.5508(3) 0.7609(3) 0.2775(2)
H5 H 0.5024 0.7001 0.3035
C5 C 0.5077(2) 0.8300(2) 0.18854(17)
C6 C 0.5811(3) 0.9187(3) 0.1508(2)
H6 H 0.5531 0.9674 0.0909
C7 C 0.6948(3) 0.9343(4) 0.2019(3)
H7 H 0.7439 0.9921 0.1747
C8 C 0.2639(2) 0.7815(2) 0.27494(18)
C9 C 0.2024(3) 0.8032(3) 0.4281(2)
H8 H 0.1923 0.6971 0.4216
H9 H 0.1305 0.8447 0.4380
C10 C 0.3000(5) 0.8359(6) 0.5169(3)
H10 H 0.2850 0.9342 0.5384
H11 H 0.2898 0.7689 0.5682
H12 H 0.4194 0.7791 0.4619
C11 C 0.4955(7) 0.8188(11) 0.6175(6)
H13 H 0.5731 0.8007 0.6105
H14 H 0.4715 0.7383 0.6525
H15 H 0.4947 0.9088 0.6536
O1 O 0.33832(17) 0.9105(2) 0.04174(12)
O2 O 0.34241(18) 0.65347(17) 0.09997(13)
O3 O 0.28526(16) 0.64865(17) 0.28448(13)
N1 N 0.28128(19) 0.8600(2) 0.19366(16)
N2 N 0.2227(2) 0.8617(2) 0.33743(16)
S1 S 0.36237(6) 0.80656(7) 0.12106(4)
H16 H 0.268(2) 0.951(2) 0.192(2)
H17 H 0.215(2) 0.960(2) 0.328(2)
C12 C 0.4147(10) 0.832(2) 0.5194(10)
H18 H 0.4339 0.9215 0.4886
H19? H 0.4281 0.7495 0.4794
C13? C 0.4482(15) 0.6259(15) 0.5505(15)
H20? H 0.5013 0.6015 0.5110
H21? H 0.3856 0.5553 0.5388
H22? H 0.4891 0.6242 0.6192
H23? H 0.4588 0.8260 0.5710
H24? H 0.3085 0.9425 0.5192
H25? H 0.2737 0.8075 0.5747
C14? C 0.4036(11) 0.7631(14) 0.5259(10)
loop_
_geom_bond_atom_site_label_1
_geom_bond_atom_site_label_2
_geom_bond_site_symmetry_1
_geom_bond_site_symmetry_2
C1 H1 1_555 1_555
H2 C1 1_555 1_555
H3 C1 1_555 1_555
C2 C1 1_555 1_555
C3 C2 1_555 1_555
H4 C3 1_555 1_555
C4 C3 1_555 1_555
H5 C4 1_555 1_555
C5 C4 1_555 1_555
C6 C5 1_555 1_555
H6 C6 1_555 1_555
C7 C2 1_555 1_555
H7 C7 1_555 1_555
C8 O3 1_555 1_555
C9 H8 1_555 1_555
H9 C9 1_555 1_555
C10 C9 1_555 1_555
H10 C10 1_555 1_555
H11 C10 1_555 1_555
H12 C12 1_555 1_555
C11 H13 1_555 1_555
H14 C11 1_555 1_555
H15 C11 1_555 1_555
O1 S1 1_555 1_555
O2 S1 1_555 1_555
N1 C8 1_555 1_555
N2 C8 1_555 1_555
S1 C5 1_555 1_555
H16 N1 1_555 1_555
H17 N2 1_555 1_555
C12 C10 1_555 1_555
H18 C12 1_555 1_555
C6 C7 1_555 1_555
C9 N2 1_555 1_555
C11 C12 1_555 1_555
N1 S1 1_555 1_555

#END
