
#######################################################################
#
#                 Cambridge Crystallographic Data Centre
#                                CCDC 
#
#######################################################################
#
# If this CIF has been generated from an entry in the Cambridge 
# Structural Database, then it will include bibliographic, chemical, 
# crystal, experimental, refinement or atomic coordinate data resulting 
# from the CCDC's data processing and validation procedures.
#
#######################################################################

data_ZZZSWU02
_chemical_formula_moiety         'Cs1 1+,C8 H5 O4 1-'
_chemical_name_systematic        'Cesium(i) hydrogen phthalate'
_symmetry_cell_setting           orthorhombic
_symmetry_space_group_name_H-M   'P c a 21'
_symmetry_Int_Tables_number      29
_space_group_name_Hall           'P 2c -2ac'
loop_
_symmetry_equiv_pos_site_id
_symmetry_equiv_pos_as_xyz
1 x,y,z
2 -x,-y,1/2+z
3 1/2+x,-y,z
4 1/2-x,y,1/2+z
_cell_length_a                   10.659(5)
_cell_length_b                   12.768(6)
_cell_length_c                   6.556(3)
_cell_angle_alpha                90
_cell_angle_beta                 90
_cell_angle_gamma                90
_cell_volume                     892.233
_exptl_crystal_colour            colorless
_exptl_crystal_description       prism
_cell_formula_units_Z            4
loop_
_atom_site_label
_atom_site_type_symbol
_atom_site_fract_x
_atom_site_fract_y
_atom_site_fract_z
Cs1 Cs 1.10820(2) 0.94540(2) 0.50311(11)
O1 O 0.8379(4) 0.8610(3) 0.2727(7)
O2 O 0.7267(4) 0.7140(3) 0.3080(7)
H1 H 0.6680 0.7550 0.3196
O3 O 1.1226(3) 0.8897(3) 0.0299(12)
O4 O 0.9649(4) 0.8272(3) -0.1439(7)
C1 C 0.8310(5) 0.7666(4) 0.2808(8)
C2 C 0.9436(5) 0.6977(4) 0.2581(9)
C3 C 0.9500(6) 0.6069(4) 0.3731(11)
H2 H 0.8828 0.5875 0.4551
C4 C 1.0574(7) 0.5447(4) 0.3661(12)
H3 H 1.0628 0.4845 0.4456
C5 C 1.1562(6) 0.5730(5) 0.2396(13)
H4 H 1.2267 0.5303 0.2302
C6 C 1.1501(6) 0.6638(5) 0.1284(10)
H5 H 1.2181 0.6829 0.0478
C7 C 1.0453(5) 0.7277(4) 0.1331(9)
C8 C 1.0422(4) 0.8216(3) -0.0002(13)
loop_
_geom_bond_atom_site_label_1
_geom_bond_atom_site_label_2
_geom_bond_site_symmetry_1
_geom_bond_site_symmetry_2
O1 C1 1_555 1_555
O2 H1 1_555 1_555
O3 C8 1_555 1_555
O4 C8 1_555 1_555
C1 O2 1_555 1_555
C2 C1 1_555 1_555
C3 C2 1_555 1_555
H2 C3 1_555 1_555
C4 C3 1_555 1_555
H3 C4 1_555 1_555
C5 C4 1_555 1_555
H4 C5 1_555 1_555
C6 C5 1_555 1_555
H5 C6 1_555 1_555
C7 C2 1_555 1_555
C8 C7 1_555 1_555
C6 C7 1_555 1_555

#END
