
#######################################################################
#
#                 Cambridge Crystallographic Data Centre
#                                CCDC 
#
#######################################################################
#
# If this CIF has been generated from an entry in the Cambridge 
# Structural Database, then it will include bibliographic, chemical, 
# crystal, experimental, refinement or atomic coordinate data resulting 
# from the CCDC's data processing and validation procedures.
#
#######################################################################

data_ZZZTXI12
_chemical_formula_moiety         'C13 H8 O2'
_chemical_name_systematic        9H-xanthen-9-one
_symmetry_cell_setting           orthorhombic
_symmetry_space_group_name_H-M   'P 21 21 21'
_symmetry_Int_Tables_number      19
_space_group_name_Hall           'P 2ac 2ab'
loop_
_symmetry_equiv_pos_site_id
_symmetry_equiv_pos_as_xyz
1 x,y,z
2 1/2-x,-y,1/2+z
3 1/2+x,1/2-y,-z
4 -x,1/2+y,1/2-z
_cell_length_a                   4.8978(14)
_cell_length_b                   13.654(5)
_cell_length_c                   14.129(5)
_cell_angle_alpha                90
_cell_angle_beta                 90
_cell_angle_gamma                90
_cell_volume                     944.871
_exptl_crystal_colour            white
_exptl_crystal_description       Spicule
_cell_formula_units_Z            4
_chemical_properties_physical    'Other: please specify below'
_exptl_crystal_preparation       'Other: please specify below'
loop_
_atom_site_label
_atom_site_type_symbol
_atom_site_fract_x
_atom_site_fract_y
_atom_site_fract_z
O1 O 0.5187(15) 0.9047(5) 0.9612(5)
O2 O 0.6034(17) 1.0827(6) 0.7299(6)
C1 C 0.397(2) 1.0523(7) 0.8781(8)
C2 C 0.368(2) 0.9901(8) 0.9540(8)
C3 C 0.745(2) 0.9419(9) 0.8133(8)
C4 C 0.588(2) 1.0318(9) 0.8025(9)
C5 C 0.241(3) 1.1380(9) 0.8780(10)
H1 H 0.2639 1.1827 0.8289
C6 C 0.183(3) 1.0070(10) 1.0270(8)
H2 H 0.1606 0.9630 1.0766
C7 C 0.707(2) 0.8822(8) 0.8919(9)
C8 C 0.057(3) 1.1578(10) 0.9477(11)
H3 H -0.0498 1.2140 0.9453
C9 C 0.033(2) 1.0930(11) 1.0219(10)
H4 H -0.0882 1.1075 1.0705
C10 C 0.847(3) 0.7956(8) 0.9033(10)
H5 H 0.8101 0.7547 0.9543
C11 C 0.946(2) 0.9137(10) 0.7490(10)
H6 H 0.9850 0.9541 0.6977
C12 C 1.088(3) 0.8282(11) 0.7594(11)
H7 H 1.2131 0.8090 0.7135
C13 C 1.044(3) 0.7705(11) 0.8381(12)
H8 H 1.1483 0.7143 0.8472
loop_
_geom_bond_atom_site_label_1
_geom_bond_atom_site_label_2
_geom_bond_site_symmetry_1
_geom_bond_site_symmetry_2
O1 C2 1_555 1_555
O2 C4 1_555 1_555
C1 C2 1_555 1_555
C2 C6 1_555 1_555
C3 C4 1_555 1_555
C4 C1 1_555 1_555
C5 C1 1_555 1_555
H1 C5 1_555 1_555
C6 H2 1_555 1_555
C7 O1 1_555 1_555
C8 C5 1_555 1_555
H3 C8 1_555 1_555
C9 C6 1_555 1_555
H4 C9 1_555 1_555
C10 C7 1_555 1_555
H5 C10 1_555 1_555
C11 C3 1_555 1_555
H6 C11 1_555 1_555
C12 C11 1_555 1_555
H7 C12 1_555 1_555
C13 C10 1_555 1_555
H8 C13 1_555 1_555
C3 C7 1_555 1_555
C8 C9 1_555 1_555
C12 C13 1_555 1_555

#END
