
#######################################################################
#
#                 Cambridge Crystallographic Data Centre
#                                CCDC 
#
#######################################################################
#
# If this CIF has been generated from an entry in the Cambridge 
# Structural Database, then it will include bibliographic, chemical, 
# crystal, experimental, refinement or atomic coordinate data resulting 
# from the CCDC's data processing and validation procedures.
#
#######################################################################

data_ZZZVZC02
_chemical_name_common            
"1,1'-(2,4,5,6-Tetrahydroxycyclohexane-1,3-diyl)diguanidinium sulfate monohydrate"
_chemical_formula_moiety         'C8 H20 N6 O4 2+,O4 S1 2-,H2 O1'
_chemical_name_systematic        'Streptidinium sulfate monohydrate'
_chemical_properties_biological  
'Streptidine is the cationic sugar component of the antibiotic streptomycin'
_symmetry_cell_setting           trigonal
_symmetry_space_group_name_H-M   'P 31'
_symmetry_Int_Tables_number      144
_space_group_name_Hall           'P 31'
loop_
_symmetry_equiv_pos_site_id
_symmetry_equiv_pos_as_xyz
1 x,y,z
2 -y,x-y,1/3+z
3 -x+y,-x,2/3+z
_cell_length_a                   9.1297(6)
_cell_length_b                   9.1297(6)
_cell_length_c                   16.2706(18)
_cell_angle_alpha                90
_cell_angle_beta                 90
_cell_angle_gamma                120
_cell_volume                     1174.48
_exptl_crystal_colour            'pale yellow'
_exptl_crystal_description       prism
_cell_formula_units_Z            3
loop_
_atom_site_label
_atom_site_type_symbol
_atom_site_fract_x
_atom_site_fract_y
_atom_site_fract_z
C1 C 1.3581(4) 0.2007(4) 0.2717(2)
H1 H 1.255(6) 0.115(6) 0.294(3)
N1 N 1.4666(4) 0.2997(4) 0.33916(19)
H2 H 1.553(7) 0.400(7) 0.322(3)
C2 C 1.4350(5) 0.1085(4) 0.2254(2)
H3 H 1.547(6) 0.191(6) 0.199(3)
O1 O 1.4468(4) -0.0025(4) 0.28179(17)
H4 H 1.516(8) -0.012(7) 0.265(4)
C3 C 1.3239(4) 0.0127(4) 0.1516(2)
H5 H 1.206(6) -0.069(6) 0.168(3)
N2 N 1.3942(4) -0.0770(4) 0.1080(2)
H6 H 1.467(6) -0.028(7) 0.071(3)
C4 C 1.3056(5) 0.1331(4) 0.0938(2)
H7 H 1.421(6) 0.234(6) 0.072(3)
O2 O 1.2040(4) 0.0389(4) 0.02551(19)
H8 H 1.221(8) 0.104(8) -0.016(4)
C5 C 1.2230(5) 0.2183(4) 0.1398(2)
H9 H 1.111(6) 0.135(6) 0.160(3)
O3 O 1.2109(4) 0.3359(4) 0.08671(18)
H10 H 1.107(8) 0.291(7) 0.082(4)
C6 C 1.3255(4) 0.3150(4) 0.2152(2)
H11 H 1.440(6) 0.413(6) 0.194(3)
O4 O 1.2465(4) 0.3924(3) 0.25783(19)
H12 H 1.176(8) 0.329(8) 0.283(4)
C7 C 1.4355(4) 0.2611(5) 0.4179(2)
N3 N 1.5486(5) 0.3672(5) 0.4728(2)
H13 H 1.625(8) 0.458(8) 0.456(4)
H14 H 1.520(7) 0.353(7) 0.519(4)
N4 N 1.2997(6) 0.1253(6) 0.4431(3)
H15 H 1.223(10) 0.042(9) 0.414(5)
H16 H 1.297(9) 0.104(10) 0.490(5)
C8 C 1.3494(5) -0.2377(4) 0.1204(2)
N5 N 1.4217(5) -0.3058(5) 0.0765(3)
H17 H 1.359(8) -0.410(8) 0.074(4)
H18 H 1.500(8) -0.237(8) 0.037(4)
N6 N 1.2328(5) -0.3315(4) 0.1756(3)
H19 H 1.201(7) -0.444(8) 0.188(4)
H20 H 1.190(8) -0.298(8) 0.210(4)
S1 S 0.80020(11) 0.10535(12) -0.00001(5)
O5 O 0.6543(8) 0.1348(9) -0.0159(4)
O6 O 0.8522(6) 0.1558(6) 0.0859(2)
O7 O 0.9361(6) 0.2281(7) -0.0537(3)
O8 O 0.7477(8) -0.0636(6) -0.0157(4)
O9 O 1.2515(4) 0.2659(5) -0.1002(2)
H21 H 1.256(9) 0.244(9) -0.147(5)
H22 H 1.171(9) 0.259(9) -0.094(5)
O10? O 0.637(2) 0.046(3) -0.0278(10)
O11? O 0.9107(19) 0.2558(19) 0.0321(15)
O12? O 0.896(2) 0.061(3) -0.0675(11)
O13? O 0.789(2) -0.029(2) 0.0643(10)
loop_
_geom_bond_atom_site_label_1
_geom_bond_atom_site_label_2
_geom_bond_site_symmetry_1
_geom_bond_site_symmetry_2
C1 H1 1_555 1_555
N1 C1 1_555 1_555
H2 N1 1_555 1_555
C2 C1 1_555 1_555
H3 C2 1_555 1_555
O1 C2 1_555 1_555
H4 O1 1_555 1_555
C3 C2 1_555 1_555
H5 C3 1_555 1_555
N2 C3 1_555 1_555
H6 N2 1_555 1_555
C4 C3 1_555 1_555
H7 C4 1_555 1_555
O2 C4 1_555 1_555
H8 O2 1_555 1_555
C5 C4 1_555 1_555
H9 C5 1_555 1_555
O3 C5 1_555 1_555
H10 O3 1_555 1_555
C6 C1 1_555 1_555
H11 C6 1_555 1_555
O4 C6 1_555 1_555
H12 O4 1_555 1_555
C7 N1 1_555 1_555
N3 C7 1_555 1_555
H13 N3 1_555 1_555
H14 N3 1_555 1_555
N4 C7 1_555 1_555
H15 N4 1_555 1_555
H16 N4 1_555 1_555
C8 N2 1_555 1_555
N5 C8 1_555 1_555
H17 N5 1_555 1_555
H18 N5 1_555 1_555
N6 C8 1_555 1_555
H19 N6 1_555 1_555
H20 N6 1_555 1_555
S1 O5 1_555 1_555
O6 S1 1_555 1_555
O7 S1 1_555 1_555
O8 S1 1_555 1_555
O9 H21 1_555 1_555
H22 O9 1_555 1_555
C5 C6 1_555 1_555

#END
