
#######################################################################
#
#                 Cambridge Crystallographic Data Centre
#                                CCDC 
#
#######################################################################
#
# If this CIF has been generated from an entry in the Cambridge 
# Structural Database, then it will include bibliographic, chemical, 
# crystal, experimental, refinement or atomic coordinate data resulting 
# from the CCDC's data processing and validation procedures.
#
#######################################################################

data_AHINOW
_chemical_formula_moiety         
'C48 H30 N18 Ni2 O6 2-,3(C1 H4 O1),2(K1 1+),3(H2 O1)'
_chemical_name_systematic        
"di-potassium tris(\m~2~-N,N'-1,3-phenylenedipyrazine-2-carboxamidato)-di-nickel(ii) methanol solvate trihydrate"
_symmetry_cell_setting           monoclinic
_symmetry_space_group_name_H-M   'P 21/n'
_symmetry_Int_Tables_number      14
_space_group_name_Hall           '-P 2yn'
loop_
_symmetry_equiv_pos_site_id
_symmetry_equiv_pos_as_xyz
1 x,y,z
2 1/2-x,1/2+y,1/2-z
3 -x,-y,-z
4 1/2+x,1/2-y,1/2+z
_cell_length_a                   12.536(3)
_cell_length_b                   28.635(6)
_cell_length_c                   15.794(3)
_cell_angle_alpha                90
_cell_angle_beta                 91.53(3)
_cell_angle_gamma                90
_cell_volume                     5667.52
_exptl_crystal_colour            'light brown'
_exptl_crystal_description       prism
_cell_formula_units_Z            4
_exptl_crystal_preparation       'Magnetic properties'
loop_
_atom_site_label
_atom_site_type_symbol
_atom_site_fract_x
_atom_site_fract_y
_atom_site_fract_z
Ni1 Ni -0.04095(5) 0.12806(2) 0.80692(4)
Ni2 Ni 0.02467(5) 0.36713(2) 0.79161(4)
C1 C -0.2076(4) 0.0523(2) 0.8533(3)
H1 H -0.1524 0.0353 0.8789
C2 C -0.3115(5) 0.0361(2) 0.8574(4)
H2 H -0.3240 0.0081 0.8851
C3 C -0.3709(5) 0.0991(2) 0.7822(4)
H3 H -0.4266 0.1162 0.7575
C4 C -0.2669(4) 0.1156(2) 0.7757(3)
C5 C -0.2404(4) 0.1592(2) 0.7271(3)
C6 C -0.1027(4) 0.20657(19) 0.6756(3)
C7 C -0.0417(4) 0.20088(19) 0.6034(3)
H4 H -0.0309 0.1712 0.5811
C8 C 0.0030(4) 0.2397(2) 0.5650(3)
H5 H 0.0432 0.2358 0.5169
C9 C -0.0118(5) 0.28458(19) 0.5977(3)
H6 H 0.0195 0.3103 0.5723
C10 C -0.0740(4) 0.29037(19) 0.6687(3)
C11 C -0.1207(4) 0.25154(19) 0.7056(3)
H7 H -0.1649 0.2557 0.7513
C12 C -0.1781(6) 0.3550(3) 0.7001(5)
C13 C -0.1874(5) 0.4006(2) 0.7485(4)
C14 C -0.2827(5) 0.4243(2) 0.7532(4)
H8 H -0.3431 0.4120 0.7258
C15 C -0.2020(5) 0.4807(2) 0.8326(4)
H9 H -0.2039 0.5090 0.8613
C16 C -0.1065(5) 0.4570(2) 0.8292(4)
H10 H -0.0459 0.4697 0.8554
C17 C 0.0756(5) 0.0480(2) 0.9050(4)
H11 H 0.0808 0.0324 0.8536
C18 C 0.1188(6) 0.0279(2) 0.9778(4)
H12 H 0.1514 -0.0012 0.9743
C19 C 0.0671(7) 0.0906(2) 1.0541(4)
H13 H 0.0634 0.1064 1.1054
C20 C 0.0233(5) 0.11073(19) 0.9826(3)
C21 C -0.0308(4) 0.15815(19) 0.9847(3)
C22 C -0.1294(4) 0.21351(19) 0.9093(3)
C23 C -0.2400(4) 0.2193(2) 0.9006(3)
H14 H -0.2849 0.1934 0.9002
C24 C -0.2820(4) 0.2638(2) 0.8926(3)
H15 H -0.3555 0.2674 0.8872
C25 C -0.2172(4) 0.3030(2) 0.8925(3)
H16 H -0.2471 0.3326 0.8859
C26 C -0.1068(4) 0.29789(19) 0.9024(3)
C27 C -0.0640(4) 0.25342(18) 0.9111(3)
H17 H 0.0094 0.2499 0.9183
C28 C 0.0139(4) 0.3451(2) 0.9725(3)
C29 C 0.0997(4) 0.38150(19) 0.9664(3)
C30 C 0.1658(5) 0.3925(2) 1.0358(4)
H18 H 0.1535 0.3783 1.0876
C31 C 0.2621(6) 0.4406(3) 0.9545(4)
H19 H 0.3182 0.4615 0.9481
C32 C 0.1985(5) 0.4296(2) 0.8838(4)
H20 H 0.2137 0.4427 0.8315
C33 C -0.0335(4) 0.04812(19) 0.6729(4)
H21 H -0.0919 0.0348 0.6988
C34 C 0.0029(5) 0.0289(2) 0.5992(4)
H22 H -0.0318 0.0028 0.5767
C35 C 0.1322(5) 0.0838(2) 0.5953(4)
H23 H 0.1902 0.0973 0.5692
C36 C 0.0972(4) 0.10310(18) 0.6697(3)
C37 C 0.1503(4) 0.14472(18) 0.7105(3)
C38 C 0.1496(4) 0.19772(18) 0.8222(3)
C39 C 0.1978(4) 0.19573(18) 0.9028(3)
H24 H 0.2044 0.1672 0.9307
C40 C 0.2361(4) 0.2366(2) 0.9419(3)
C41 C 0.2235(4) 0.27967(19) 0.9010(3)
H25 H 0.2477 0.3069 0.9272
C42 C 0.1743(4) 0.28160(18) 0.8206(3)
C43 C 0.1404(4) 0.24073(18) 0.7816(3)
H26 H 0.1107 0.2420 0.7271
C44 C 0.2179(4) 0.33342(19) 0.7141(4)
C45 C 0.1882(5) 0.3765(2) 0.6652(4)
C46 C 0.2441(6) 0.3907(2) 0.5953(4)
H27 H 0.3024 0.3731 0.5788
C47 C 0.1329(7) 0.4519(3) 0.5772(5)
H28 H 0.1109 0.4785 0.5476
C48 C 0.0766(6) 0.4385(2) 0.6463(4)
H29 H 0.0183 0.4563 0.6620
N1 N -0.1858(3) 0.09207(16) 0.8130(3)
N2 N -0.3937(4) 0.0591(2) 0.8232(4)
N3 N -0.1371(3) 0.16642(15) 0.7215(3)
N4 N -0.0993(4) 0.41605(16) 0.7889(3)
N5 N -0.2912(4) 0.46455(19) 0.7963(3)
N6 N -0.0848(4) 0.33512(16) 0.7077(3)
N7 N 0.0269(3) 0.08916(15) 0.9075(3)
N8 N 0.1150(7) 0.0490(2) 1.0527(4)
N9 N -0.0809(3) 0.16849(15) 0.9118(3)
N10 N 0.1157(4) 0.40031(15) 0.8900(3)
N11 N 0.2464(4) 0.42283(19) 1.0303(3)
N12 N -0.0351(3) 0.33625(15) 0.8999(3)
N13 N 0.0130(3) 0.08544(15) 0.7079(3)
N14 N 0.0857(4) 0.04622(18) 0.5592(3)
N15 N 0.1063(3) 0.15738(15) 0.7812(3)
N16 N 0.1027(4) 0.40073(17) 0.6916(3)
N17 N 0.2174(5) 0.4287(2) 0.5505(4)
N18 N 0.1556(3) 0.32447(16) 0.7771(3)
O1 O -0.3163(3) 0.18225(15) 0.6951(3)
O2 O -0.2575(6) 0.3424(3) 0.6563(6)
O3 O -0.0253(3) 0.18102(14) 1.0520(2)
O4 O -0.0019(4) 0.32669(16) 1.0438(3)
O5 O 0.2303(3) 0.16224(13) 0.6743(2)
O6 O 0.2976(3) 0.31044(15) 0.6908(3)
K1 K 0.12471(13) 0.23032(10) 1.13539(13)
K2 K 0.33593(10) 0.23459(5) 0.59893(8)
C49 C -0.0522(5) 0.2863(3) 1.3039(4)
H30 H -0.0941 0.2602 1.3221
H31 H -0.0970 0.3133 1.2981
H32 H 0.0038 0.2923 1.3451
O7 O -0.0086(6) 0.2761(3) 1.2274(4)
C50 C -0.1096(10) 0.4667(4) 1.0324(6)
H33 H -0.1848 0.4682 1.0198
H34 H -0.0814 0.4380 1.0111
H35 H -0.0747 0.4926 1.0061
O8 O -0.0916(6) 0.4688(2) 1.1213(4)
C51 C 0.4777(8) 0.3578(4) 0.8236(6)
H36 H 0.4511 0.3289 0.8457
H37 H 0.4294 0.3826 0.8366
H38 H 0.5466 0.3643 0.8489
O9 O 0.4863(8) 0.3542(5) 0.7378(5)
O10 O -0.0790(4) 0.38256(18) 1.1655(3)
O11 O 0.2331(8) 0.5174(3) 0.7475(5)
O12 O 0.1305(16) 0.5877(6) 0.5063(15)
loop_
_geom_bond_atom_site_label_1
_geom_bond_atom_site_label_2
_geom_bond_site_symmetry_1
_geom_bond_site_symmetry_2
Ni1 N1 1_555 1_555
Ni2 N4 1_555 1_555
C1 H1 1_555 1_555
C2 C1 1_555 1_555
H2 C2 1_555 1_555
C3 H3 1_555 1_555
C4 C3 1_555 1_555
C5 C4 1_555 1_555
C6 C7 1_555 1_555
C7 H4 1_555 1_555
C8 C7 1_555 1_555
H5 C8 1_555 1_555
C9 C8 1_555 1_555
H6 C9 1_555 1_555
C10 C9 1_555 1_555
C11 C6 1_555 1_555
H7 C11 1_555 1_555
C12 C13 1_555 1_555
C13 C14 1_555 1_555
C14 H8 1_555 1_555
C15 H9 1_555 1_555
C16 C15 1_555 1_555
H10 C16 1_555 1_555
C17 H11 1_555 1_555
C18 C17 1_555 1_555
H12 C18 1_555 1_555
C19 H13 1_555 1_555
C20 C19 1_555 1_555
C21 C20 1_555 1_555
C22 C23 1_555 1_555
C23 H14 1_555 1_555
C24 C23 1_555 1_555
H15 C24 1_555 1_555
C25 C24 1_555 1_555
H16 C25 1_555 1_555
C26 C25 1_555 1_555
C27 C22 1_555 1_555
H17 C27 1_555 1_555
C28 C29 1_555 1_555
C29 C30 1_555 1_555
C30 H18 1_555 1_555
C31 H19 1_555 1_555
C32 C31 1_555 1_555
H20 C32 1_555 1_555
C33 H21 1_555 1_555
C34 C33 1_555 1_555
H22 C34 1_555 1_555
C35 H23 1_555 1_555
C36 C35 1_555 1_555
C37 C36 1_555 1_555
C38 C39 1_555 1_555
C39 H24 1_555 1_555
C40 C39 1_555 1_555
C41 C40 1_555 1_555
H25 C41 1_555 1_555
C42 C41 1_555 1_555
C43 C38 1_555 1_555
H26 C43 1_555 1_555
C44 C45 1_555 1_555
C45 C46 1_555 1_555
C46 H27 1_555 1_555
C47 H28 1_555 1_555
C48 C47 1_555 1_555
H29 C48 1_555 1_555
N1 C1 1_555 1_555
N2 C2 1_555 1_555
N3 Ni1 1_555 1_555
N4 C13 1_555 1_555
N5 C14 1_555 1_555
N6 Ni2 1_555 1_555
N7 Ni1 1_555 1_555
N8 C18 1_555 1_555
N9 Ni1 1_555 1_555
N10 Ni2 1_555 1_555
N11 C30 1_555 1_555
N12 Ni2 1_555 1_555
N13 Ni1 1_555 1_555
N14 C34 1_555 1_555
N15 Ni1 1_555 1_555
N16 Ni2 1_555 1_555
N17 C46 1_555 1_555
N18 Ni2 1_555 1_555
O1 C5 1_555 1_555
O2 C12 1_555 1_555
O3 C21 1_555 1_555
O4 C28 1_555 1_555
O5 C37 1_555 1_555
O6 C44 1_555 1_555
C49 H30 1_555 1_555
H31 C49 1_555 1_555
H32 C49 1_555 1_555
O7 C49 1_555 1_555
C50 H33 1_555 1_555
H34 C50 1_555 1_555
H35 C50 1_555 1_555
O8 C50 1_555 1_555
C51 H36 1_555 1_555
H37 C51 1_555 1_555
H38 C51 1_555 1_555
O9 C51 1_555 1_555
C3 N2 1_555 1_555
C4 N1 1_555 1_555
C5 N3 1_555 1_555
C6 N3 1_555 1_555
C10 C11 1_555 1_555
C10 N6 1_555 1_555
C12 N6 1_555 1_555
C15 N5 1_555 1_555
C16 N4 1_555 1_555
C17 N7 1_555 1_555
C19 N8 1_555 1_555
C20 N7 1_555 1_555
C21 N9 1_555 1_555
C22 N9 1_555 1_555
C26 C27 1_555 1_555
C26 N12 1_555 1_555
C28 N12 1_555 1_555
C29 N10 1_555 1_555
C31 N11 1_555 1_555
C32 N10 1_555 1_555
C33 N13 1_555 1_555
C35 N14 1_555 1_555
C36 N13 1_555 1_555
C37 N15 1_555 1_555
C38 N15 1_555 1_555
C42 C43 1_555 1_555
C42 N18 1_555 1_555
C44 N18 1_555 1_555
C45 N16 1_555 1_555
C47 N17 1_555 1_555
C48 N16 1_555 1_555

#END
