
#######################################################################
#
#                 Cambridge Crystallographic Data Centre
#                                CCDC 
#
#######################################################################
#
# If this CIF has been generated from an entry in the Cambridge 
# Structural Database, then it will include bibliographic, chemical, 
# crystal, experimental, refinement or atomic coordinate data resulting 
# from the CCDC's data processing and validation procedures.
#
#######################################################################

data_ALIZAW
_chemical_formula_moiety         
'C50 H58 N6 P4 Pt2 4+,4(C1 F3 O3 S1 1-),C1 H4 O1'
_chemical_name_systematic        
'bis(\m~2~-3,5-bis(4-Pyridylethynyl)pyridine)-tetrakis(trimethylphosphine)-di-platinum(ii) tetrakis(trifluoromethanesulfonate) methanol clathrate'
_symmetry_cell_setting           triclinic
_symmetry_space_group_name_H-M   'P -1'
_symmetry_Int_Tables_number      2
_space_group_name_Hall           '-P 1'
loop_
_symmetry_equiv_pos_site_id
_symmetry_equiv_pos_as_xyz
1 x,y,z
2 -x,-y,-z
_cell_length_a                   8.6749(2)
_cell_length_b                   9.0021(2)
_cell_length_c                   23.7069(6)
_cell_angle_alpha                92.2330(8)
_cell_angle_beta                 97.2203(8)
_cell_angle_gamma                101.0409(16)
_cell_volume                     1798.87
_exptl_crystal_colour            'light brown'
_exptl_crystal_description       plate
_cell_formula_units_Z            1
_exptl_crystal_recrystallization_method 'diethyl ether/methanol'
loop_
_atom_site_label
_atom_site_type_symbol
_atom_site_fract_x
_atom_site_fract_y
_atom_site_fract_z
Pt1 Pt -0.08162(3) 0.04815(2) 0.184647(9)
P1 P -0.0593(2) -0.16327(17) 0.13475(7)
P2 P -0.27867(19) 0.10366(18) 0.12213(7)
N1 N 0.1029(6) 0.0202(5) 0.2476(2)
N2 N 1.0292(9) 0.1283(11) 0.4525(3)
N3 N -0.0779(6) 0.2399(5) 0.2395(2)
C1 C 0.2501(8) 0.0919(7) 0.2424(3)
H1 H 0.2709 0.1339 0.2073
C2 C 0.3722(8) 0.1063(8) 0.2867(3)
H2 H 0.4758 0.1573 0.2820
C3 C 0.3435(8) 0.0460(7) 0.3383(3)
C4 C 0.1897(9) -0.0273(8) 0.3434(3)
H3 H 0.1652 -0.0683 0.3782
C5 C 0.0747(8) -0.0394(7) 0.2975(3)
H4 H -0.0294 -0.0918 0.3009
C6 C 0.4749(9) 0.0631(8) 0.3830(3)
C7 C 0.5944(9) 0.0861(9) 0.4159(3)
C8 C 0.7479(9) 0.1273(9) 0.4498(3)
C9 C 0.7764(9) 0.2150(8) 0.4995(3)
H5 H 0.6911 0.2433 0.5159
C10 C 0.9302(9) 0.2627(9) 0.5257(3)
C11 C 1.0532(11) 0.2179(11) 0.5001(4)
H6 H 1.1591 0.2535 0.5177
C12 C 0.8770(11) 0.0866(12) 0.4285(4)
H7 H 0.8562 0.0242 0.3941
C13 C 0.9656(9) 0.3598(8) 0.5778(3)
C14 C 0.9947(9) 0.4399(8) 0.6205(3)
C15 C 1.0264(8) 0.5439(7) 0.6695(3)
C16 C 1.1548(8) 0.6651(8) 0.6756(3)
H8 H 1.2277 0.6745 0.6486
C17 C -0.1762(8) 0.2287(8) 0.2794(3)
H9 H -0.2628 0.1451 0.2764
C18 C 0.0436(8) 0.3603(7) 0.2437(3)
H10 H 0.1108 0.3708 0.2148
C19 C 0.9269(8) 0.5318(7) 0.7115(3)
H11 H 0.8390 0.4496 0.7092
C20 C 0.0361(11) -0.2874(8) 0.1790(3)
H12 H 0.0477 -0.3757 0.1556
H13 H -0.0286 -0.3212 0.2089
H14 H 0.1410 -0.2327 0.1966
C21 C 0.0638(10) -0.1227(8) 0.0790(3)
H15 H 0.1656 -0.0586 0.0951
H16 H 0.0105 -0.0697 0.0495
H17 H 0.0823 -0.2179 0.0622
C22 C -0.2389(10) -0.2872(8) 0.1021(3)
H18 H -0.2932 -0.2346 0.0727
H19 H -0.3083 -0.3162 0.1311
H20 H -0.2132 -0.3784 0.0847
C23 C -0.4732(9) -0.0037(10) 0.1306(4)
H21 H -0.5549 0.0366 0.1070
H22 H -0.4895 0.0049 0.1707
H23 H -0.4803 -0.1106 0.1187
C24 C -0.3026(10) 0.2970(8) 0.1354(4)
H24 H -0.2056 0.3673 0.1296
H25 H -0.3234 0.3116 0.1748
H26 H -0.3919 0.3167 0.1091
C25 C -0.2648(9) 0.0850(9) 0.0471(3)
H27 H -0.3585 0.1111 0.0253
H28 H -0.2591 -0.0199 0.0364
H29 H -0.1693 0.1534 0.0388
C17A C 1.1762(8) 0.7713(8) 0.7206(3)
N3A N 1.0779(6) 0.7601(5) 0.7605(2)
Pt1A Pt 1.08162(3) 0.95185(2) 0.815353(9)
P1A P 1.0593(2) 1.16327(17) 0.86525(7)
C20A C 0.9639(11) 1.2874(8) 0.8210(3)
H12A H 0.9523 1.3757 0.8444
H13A H 1.0286 1.3212 0.7911
H14A H 0.8590 1.2327 0.8034
C21A C 0.9362(10) 1.1227(8) 0.9210(3)
H15A H 0.8344 1.0586 0.9049
H16A H 0.9895 1.0697 0.9505
H17A H 0.9177 1.2179 0.9378
C22A C 1.2389(10) 1.2872(8) 0.8979(3)
H18A H 1.2932 1.2346 0.9273
H19A H 1.3083 1.3162 0.8689
H20A H 1.2132 1.3784 0.9153
P2A P 1.27867(19) 0.89634(18) 0.87787(7)
C23A C 1.4732(9) 1.0037(10) 0.8694(4)
H21A H 1.5549 0.9634 0.8930
H22A H 1.4895 0.9951 0.8293
H23A H 1.4803 1.1106 0.8813
C24A C 1.3026(10) 0.7030(8) 0.8646(4)
H24A H 1.2056 0.6327 0.8704
H25A H 1.3234 0.6884 0.8252
H26A H 1.3919 0.6833 0.8909
C25A C 1.2648(9) 0.9150(9) 0.9529(3)
H27A H 1.3585 0.8889 0.9747
H28A H 1.2591 1.0199 0.9636
H29A H 1.1693 0.8466 0.9612
N1A N 0.8971(6) 0.9798(5) 0.7524(2)
C1A C 0.7499(8) 0.9081(7) 0.7576(3)
H1A H 0.7291 0.8661 0.7927
C2A C 0.6278(8) 0.8937(8) 0.7133(3)
H2A H 0.5242 0.8427 0.7180
C3A C 0.6565(8) 0.9540(7) 0.6617(3)
C4A C 0.8103(9) 1.0273(8) 0.6566(3)
H3A H 0.8348 1.0683 0.6218
C5A C 0.9253(8) 1.0394(7) 0.7025(3)
H4A H 1.0294 1.0918 0.6991
C6A C 0.5251(9) 0.9369(8) 0.6170(3)
C7A C 0.4056(9) 0.9139(9) 0.5841(3)
C8A C 0.2521(9) 0.8727(9) 0.5502(3)
C9A C 0.2236(9) 0.7850(8) 0.5005(3)
H5A H 0.3089 0.7567 0.4841
C10A C 0.0698(9) 0.7373(9) 0.4743(3)
C11A C -0.0532(11) 0.7821(11) 0.4999(4)
N2A N -0.0292(9) 0.8717(11) 0.5475(3)
C12A C 0.1230(11) 0.9134(12) 0.5715(4)
H7A H 0.1438 0.9758 0.6059
H6A H -0.1591 0.7465 0.4823
C13A C 0.0344(9) 0.6402(8) 0.4222(3)
C14A C 0.0053(9) 0.5601(8) 0.3795(3)
C15A C -0.0264(8) 0.4561(7) 0.3305(3)
C16A C -0.1548(8) 0.3349(8) 0.3244(3)
H8A H -0.2277 0.3255 0.3514
C19A C 0.0731(8) 0.4682(7) 0.2885(3)
H11A H 0.1610 0.5504 0.2908
C18A C 0.9564(8) 0.6397(7) 0.7563(3)
H10A H 0.8892 0.6292 0.7852
H9A H 1.2628 0.8549 0.7236
S1 S 0.1901(5) 0.3275(3) 0.08566(13)
F1 F 0.4390(7) 0.4920(9) 0.0509(4)
F2 F 0.2220(7) 0.5385(6) 0.0134(2)
F3 F 0.3189(10) 0.6128(6) 0.1002(3)
O1 O 0.2912(7) 0.2921(7) 0.1329(3)
O2 O 0.1700(16) 0.2247(7) 0.0368(3)
O3 O 0.0504(8) 0.3679(9) 0.0999(4)
C26 C 0.2933(9) 0.4984(8) 0.0611(3)
S2 S 0.5755(4) 0.7580(3) 0.29169(18)
F4 F 0.5095(11) 0.4676(7) 0.2746(4)
F5 F 0.7105(14) 0.6075(15) 0.2364(5)
F6 F 0.469(2) 0.5956(14) 0.2013(5)
O4 O 0.6905(16) 0.7301(17) 0.3460(7)
O5 O 0.6355(12) 0.8868(8) 0.2689(5)
O6 O 0.4241(11) 0.7279(10) 0.3191(8)
C27 C 0.560(2) 0.5899(15) 0.2497(6)
O7 O 0.504(2) 0.6397(19) 0.4377(6)
C28 C 0.445(4) 0.464(3) 0.4205(9)
loop_
_geom_bond_atom_site_label_1
_geom_bond_atom_site_label_2
_geom_bond_site_symmetry_1
_geom_bond_site_symmetry_2
Pt1 P1 1_555 1_555
P1 C20 1_555 1_555
P2 Pt1 1_555 1_555
N1 Pt1 1_555 1_555
N2 C11 1_555 1_555
N3 Pt1 1_555 1_555
C1 N1 1_555 1_555
H1 C1 1_555 1_555
C2 C1 1_555 1_555
H2 C2 1_555 1_555
C3 C2 1_555 1_555
C4 C3 1_555 1_555
H3 C4 1_555 1_555
C5 N1 1_555 1_555
H4 C5 1_555 1_555
C6 C3 1_555 1_555
C7 C6 1_555 1_555
C8 C7 1_555 1_555
C9 C8 1_555 1_555
H5 C9 1_555 1_555
C10 C9 1_555 1_555
C11 C10 1_555 1_555
H6 C11 1_555 1_555
C12 N2 1_555 1_555
H7 C12 1_555 1_555
C13 C10 1_555 1_555
C14 C13 1_555 1_555
C15 C14 1_555 1_555
C16 C15 1_555 1_555
H8 C16 1_555 1_555
C17 N3 1_555 1_555
H9 C17 1_555 1_555
C18 N3 1_555 1_555
H10 C18 1_555 1_555
C19 C15 1_555 1_555
H11 C19 1_555 1_555
C20 H12 1_555 1_555
H13 C20 1_555 1_555
H14 C20 1_555 1_555
C21 P1 1_555 1_555
H15 C21 1_555 1_555
H16 C21 1_555 1_555
H17 C21 1_555 1_555
C22 P1 1_555 1_555
H18 C22 1_555 1_555
H19 C22 1_555 1_555
H20 C22 1_555 1_555
C23 P2 1_555 1_555
H21 C23 1_555 1_555
H22 C23 1_555 1_555
H23 C23 1_555 1_555
C24 P2 1_555 1_555
H24 C24 1_555 1_555
H25 C24 1_555 1_555
H26 C24 1_555 1_555
C25 P2 1_555 1_555
H27 C25 1_555 1_555
H28 C25 1_555 1_555
H29 C25 1_555 1_555
S1 O1 1_555 1_555
F1 C26 1_555 1_555
F2 C26 1_555 1_555
F3 C26 1_555 1_555
O2 S1 1_555 1_555
O3 S1 1_555 1_555
C26 S1 1_555 1_555
S2 O4 1_555 1_555
F4 C27 1_555 1_555
F5 C27 1_555 1_555
F6 C27 1_555 1_555
O5 S2 1_555 1_555
O6 S2 1_555 1_555
C27 S2 1_555 1_555
O7 C28 1_555 1_555
C17A C16 1_555 1_555
N3A C17A 1_555 1_555
Pt1A N3A 1_555 1_555
P1A Pt1A 1_555 1_555
C20A P1A 1_555 1_555
H12A C20A 1_555 1_555
H13A C20A 1_555 1_555
H14A C20A 1_555 1_555
C21A P1A 1_555 1_555
H15A C21A 1_555 1_555
H16A C21A 1_555 1_555
H17A C21A 1_555 1_555
C22A P1A 1_555 1_555
H18A C22A 1_555 1_555
H19A C22A 1_555 1_555
H20A C22A 1_555 1_555
P2A Pt1A 1_555 1_555
C23A P2A 1_555 1_555
H21A C23A 1_555 1_555
H22A C23A 1_555 1_555
H23A C23A 1_555 1_555
C24A P2A 1_555 1_555
H24A C24A 1_555 1_555
H25A C24A 1_555 1_555
H26A C24A 1_555 1_555
C25A P2A 1_555 1_555
H27A C25A 1_555 1_555
H28A C25A 1_555 1_555
H29A C25A 1_555 1_555
N1A Pt1A 1_555 1_555
C1A N1A 1_555 1_555
H1A C1A 1_555 1_555
C2A C1A 1_555 1_555
H2A C2A 1_555 1_555
C3A C2A 1_555 1_555
C4A C3A 1_555 1_555
H3A C4A 1_555 1_555
C5A N1A 1_555 1_555
H4A C5A 1_555 1_555
C6A C3A 1_555 1_555
C7A C6A 1_555 1_555
C8A C7A 1_555 1_555
C9A C8A 1_555 1_555
H5A C9A 1_555 1_555
C10A C9A 1_555 1_555
C11A C10A 1_555 1_555
N2A C11A 1_555 1_555
C12A C8A 1_555 1_555
H7A C12A 1_555 1_555
H6A C11A 1_555 1_555
C13A C10A 1_555 1_555
C14A C13A 1_555 1_555
C15A C14A 1_555 1_555
C16A C17 1_555 1_555
H8A C16A 1_555 1_555
C19A C18 1_555 1_555
H11A C19A 1_555 1_555
C18A C19 1_555 1_555
H10A C18A 1_555 1_555
H9A C17A 1_555 1_555
C4 C5 1_555 1_555
C8 C12 1_555 1_555
N3A C18A 1_555 1_555
C4A C5A 1_555 1_555
N2A C12A 1_555 1_555
C15A C16A 1_555 1_555
C15A C19A 1_555 1_555

#END
