
#######################################################################
#
#                 Cambridge Crystallographic Data Centre
#                                CCDC 
#
#######################################################################
#
# If this CIF has been generated from an entry in the Cambridge 
# Structural Database, then it will include bibliographic, chemical, 
# crystal, experimental, refinement or atomic coordinate data resulting 
# from the CCDC's data processing and validation procedures.
#
#######################################################################

data_ANEYAV
_chemical_formula_moiety         
'C108 H96 I12 N24 O12 Pd6,6(C2 H6 O1 S1),6(H2 O1)'
_chemical_name_systematic        
"tetrakis(\m-N,N',N''-tris(pyridin-2-ylmethyl)benzene-1,3,5-tricarboxamide)-dodecaiodo-hexa-palladium dimethyl sulfoxide solvate hexahydrate"
_symmetry_cell_setting           monoclinic
_symmetry_space_group_name_H-M   'P 21/c'
_symmetry_Int_Tables_number      14
_space_group_name_Hall           '-P 2ybc'
loop_
_symmetry_equiv_pos_site_id
_symmetry_equiv_pos_as_xyz
1 x,y,z
2 -x,1/2+y,1/2-z
3 -x,-y,-z
4 x,1/2-y,1/2+z
_cell_length_a                   31.977(6)
_cell_length_b                   17.382(4)
_cell_length_c                   35.886(7)
_cell_angle_alpha                90
_cell_angle_beta                 92.14(3)
_cell_angle_gamma                90
_cell_volume                     19932.4
_exptl_crystal_colour            orange
_exptl_crystal_description       block
_cell_formula_units_Z            4
loop_
_atom_site_label
_atom_site_type_symbol
_atom_site_fract_x
_atom_site_fract_y
_atom_site_fract_z
Pd1 Pd 0.46780(4) 0.35338(7) 0.51877(4)
Pd2 Pd 0.27596(4) -0.31794(6) 0.42397(3)
Pd3 Pd 0.01907(4) 0.35244(6) 0.50043(4)
Pd4 Pd 0.21164(4) 0.31423(8) 0.85469(4)
Pd5 Pd 0.51098(4) -0.23913(8) 0.71040(4)
Pd6 Pd 0.05622(4) -0.30614(6) 0.77446(3)
I1 I 0.44103(5) 0.48643(8) 0.52986(5)
I2 I 0.49829(6) 0.22223(9) 0.50914(6)
I3 I 0.34759(6) -0.26881(10) 0.41637(5)
I4 I 0.20384(6) -0.36699(9) 0.42889(5)
I5 I 0.04822(5) 0.45570(8) 0.54196(6)
I6 I -0.00737(6) 0.24813(11) 0.45978(5)
I7 I 0.19174(6) 0.43387(9) 0.82262(5)
I8 I 0.23213(7) 0.19245(12) 0.88828(6)
I9 I 0.48228(7) -0.25965(12) 0.77308(5)
I10 I 0.53635(6) -0.21749(11) 0.64701(6)
I11 I 0.11249(6) -0.29123(11) 0.82318(5)
I12 I 0.00096(5) -0.32784(9) 0.72473(5)
O1 O 0.3038(4) 0.3037(6) 0.4996(4)
O2 O 0.2978(4) -0.0355(6) 0.4403(4)
O3 O 0.1300(4) 0.1402(6) 0.4670(3)
O4 O 0.4035(4) 0.3498(7) 0.6624(5)
O5 O 0.3252(11) 0.1425(17) 0.7949(8)
O6 O 0.4268(5) -0.0157(10) 0.7497(6)
O7 O 0.2142(4) -0.3654(7) 0.5633(3)
O8 O 0.3609(4) -0.3467(7) 0.7170(4)
O9 O 0.2124(4) -0.3519(9) 0.7415(3)
O10 O 0.0731(6) 0.2589(8) 0.6045(5)
O11 O 0.0140(5) -0.0545(7) 0.6855(5)
O12 O 0.1295(7) 0.2821(7) 0.7317(5)
N1 N 0.4354(5) 0.3470(7) 0.4694(4)
N2 N 0.3512(4) 0.2077(7) 0.4903(4)
H1 H 0.3552 0.1606 0.4841
N3 N 0.2539(4) -0.2379(6) 0.3870(3)
N4 N 0.2306(4) -0.0793(6) 0.4516(3)
H2 H 0.2058 -0.0673 0.4580
N5 N 0.0629(4) 0.3733(10) 0.4625(5)
N6 N 0.1485(4) 0.2485(6) 0.4956(4)
H3 H 0.1682 0.2755 0.5061
N7 N 0.5026(5) 0.3609(7) 0.5691(5)
N8 N 0.4323(6) 0.2499(11) 0.6286(5)
H4 H 0.4407 0.2030 0.6294
N9 N 0.2734(5) 0.3393(10) 0.8522(4)
N10 N 0.3060(7) 0.2551(12) 0.7685(6)
H5 H 0.3132 0.2896 0.7527
N11 N 0.5320(5) -0.1351(10) 0.7242(4)
N12 N 0.4501(6) -0.0084(9) 0.6909(5)
H6 H 0.4499 0.0163 0.6701
N13 N 0.3001(4) -0.3954(7) 0.4592(3)
N14 N 0.2803(4) -0.3213(6) 0.5528(4)
H7 H 0.3040 -0.3055 0.5620
N15 N 0.4915(4) -0.3447(8) 0.6935(4)
N16 N 0.3806(4) -0.3031(9) 0.6624(4)
H8 H 0.3747 -0.2979 0.6389
N17 N 0.0838(5) -0.4079(7) 0.7593(4)
N18 N 0.1623(4) -0.3383(8) 0.6951(4)
H9 H 0.1556 -0.3339 0.6718
N19 N -0.0266(4) 0.3323(8) 0.5374(4)
N20 N 0.0217(4) 0.1752(7) 0.5914(4)
H10 H 0.0085 0.1341 0.5973
N21 N 0.0312(5) -0.2087(8) 0.7917(4)
N22 N 0.0707(6) -0.0679(7) 0.7227(4)
H11 H 0.0948 -0.0505 0.7300
N23 N 0.1480(5) 0.2851(10) 0.8553(6)
N24 N 0.1352(5) 0.1711(8) 0.7691(3)
H12 H 0.1323 0.1220 0.7711
C1 C 0.4008(6) 0.3027(8) 0.4630(6)
C2 C 0.3815(7) 0.3009(9) 0.4300(6)
H13 H 0.3569 0.2733 0.4261
C3 C 0.3976(8) 0.3383(12) 0.4033(8)
H14 H 0.3856 0.3335 0.3794
C4 C 0.4311(8) 0.3840(13) 0.4084(8)
H15 H 0.4409 0.4130 0.3888
C5 C 0.4499(7) 0.3875(10) 0.4413(6)
H16 H 0.4734 0.4183 0.4450
C6 C 0.3878(5) 0.2556(7) 0.4985(4)
H17 H 0.4110 0.2233 0.5071
H18 H 0.3816 0.2911 0.5185
C7 C 0.3112(6) 0.2339(8) 0.4918(5)
C8 C 0.2382(5) -0.1714(7) 0.3971(4)
C9 C 0.2255(6) -0.1174(9) 0.3727(4)
H19 H 0.2194 -0.0673 0.3798
C10 C 0.2223(7) -0.1412(12) 0.3372(6)
H20 H 0.2099 -0.1081 0.3197
C11 C 0.2357(8) -0.2097(11) 0.3252(5)
H21 H 0.2331 -0.2238 0.3002
C12 C 0.2530(6) -0.2570(10) 0.3512(5)
H22 H 0.2644 -0.3037 0.3440
C13 C 0.2428(6) -0.1574(8) 0.4405(5)
H23 H 0.2255 -0.1944 0.4531
H24 H 0.2716 -0.1664 0.4486
C14 C 0.2648(7) -0.0244(8) 0.4505(5)
C15 C 0.1012(7) 0.3339(10) 0.4622(6)
C16 C 0.1301(6) 0.3467(9) 0.4364(5)
H25 H 0.1551 0.3194 0.4378
C17 C 0.1231(7) 0.4014(15) 0.4067(7)
H26 H 0.1432 0.4143 0.3897
C18 C 0.0790(9) 0.4360(16) 0.4061(8)
H27 H 0.0686 0.4635 0.3855
C19 C 0.0552(8) 0.4253(13) 0.4366(7)
H28 H 0.0321 0.4570 0.4392
C20 C 0.1085(5) 0.2784(8) 0.4954(4)
H29 H 0.1044 0.3056 0.5186
H30 H 0.0883 0.2367 0.4936
C21 C 0.1593(6) 0.1804(9) 0.4806(4)
C22 C 0.2769(5) 0.1758(9) 0.4864(5)
C23 C 0.2849(5) 0.1040(7) 0.4759(4)
H31 H 0.3124 0.0877 0.4740
C24 C 0.2517(5) 0.0531(8) 0.4679(4)
C25 C 0.2097(5) 0.0823(9) 0.4705(4)
H32 H 0.1874 0.0499 0.4642
C26 C 0.2014(4) 0.1532(7) 0.4814(4)
C27 C 0.2356(5) 0.2035(8) 0.4870(4)
H33 H 0.2308 0.2556 0.4912
C28 C 0.4874(7) 0.3304(11) 0.6008(7)
C29 C 0.5101(7) 0.3316(11) 0.6344(7)
H34 H 0.5015 0.3081 0.6561
C30 C 0.5507(7) 0.3763(12) 0.6315(6)
H35 H 0.5676 0.3873 0.6525
C31 C 0.5609(7) 0.3987(11) 0.5980(7)
H36 H 0.5876 0.4189 0.5960
C32 C 0.5384(5) 0.3958(9) 0.5682(5)
H37 H 0.5473 0.4180 0.5463
C33 C 0.4440(8) 0.2965(10) 0.5968(7)
H38 H 0.4240 0.3381 0.5935
H39 H 0.4423 0.2649 0.5746
C34 C 0.4108(7) 0.2733(7) 0.6548(5)
C35 C 0.2970(6) 0.3182(11) 0.8268(5)
C36 C 0.3392(8) 0.3454(17) 0.8299(7)
H40 H 0.3568 0.3336 0.8107
C37 C 0.3563(10) 0.389(2) 0.8603(11)
H41 H 0.3848 0.3987 0.8633
C38 C 0.3313(11) 0.4132(19) 0.8821(9)
H42 H 0.3402 0.4495 0.8997
C39 C 0.2896(8) 0.3886(17) 0.8818(7)
H43 H 0.2723 0.4039 0.9008
C40 C 0.2763(8) 0.2812(14) 0.7959(7)
H44 H 0.2566 0.3168 0.7840
H45 H 0.2607 0.2374 0.8047
C41 C 0.3227(10) 0.1907(14) 0.7643(8)
C42 C 0.5147(8) -0.0693(14) 0.7138(7)
C43 C 0.5334(7) -0.0027(11) 0.7273(6)
H46 H 0.5177 0.0423 0.7251
C44 C 0.5688(8) 0.0030(13) 0.7420(6)
H47 H 0.5815 0.0510 0.7437
C45 C 0.5882(9) -0.0569(16) 0.7549(7)
H48 H 0.6122 -0.0548 0.7704
C46 C 0.5671(9) -0.1321(12) 0.7418(9)
H49 H 0.5808 -0.1781 0.7472
C47 C 0.4728(8) -0.0802(13) 0.6946(8)
H50 H 0.4764 -0.1020 0.6700
H51 H 0.4565 -0.1163 0.7087
C48 C 0.4305(8) 0.0183(12) 0.7184(9)
C49 C 0.3998(6) 0.2195(10) 0.6853(5)
C50 C 0.3636(7) 0.2393(12) 0.7076(7)
H52 H 0.3485 0.2847 0.7049
C51 C 0.3540(7) 0.1781(13) 0.7352(7)
C52 C 0.3802(8) 0.1158(13) 0.7398(7)
H53 H 0.3794 0.0883 0.7620
C53 C 0.4079(6) 0.0916(12) 0.7133(6)
C54 C 0.4195(6) 0.1496(10) 0.6890(5)
H54 H 0.4423 0.1403 0.6742
C55 C 0.2948(5) -0.3955(8) 0.4960(4)
C56 C 0.3111(5) -0.4576(7) 0.5193(4)
H55 H 0.3090 -0.4561 0.5451
C57 C 0.3299(6) -0.5201(10) 0.5019(5)
H56 H 0.3396 -0.5615 0.5162
C58 C 0.3341(6) -0.5211(9) 0.4656(5)
H57 H 0.3466 -0.5628 0.4542
C59 C 0.3200(6) -0.4606(9) 0.4450(5)
H58 H 0.3238 -0.4624 0.4194
C60 C 0.2728(5) -0.3279(7) 0.5124(3)
H59 H 0.2822 -0.2811 0.5005
H60 H 0.2429 -0.3328 0.5070
C61 C 0.2488(6) -0.3408(9) 0.5750(4)
C62 C 0.4547(7) -0.3581(11) 0.6794(5)
C63 C 0.4427(7) -0.4290(11) 0.6635(6)
H61 H 0.4170 -0.4344 0.6507
C64 C 0.4684(6) -0.4872(11) 0.6672(6)
H62 H 0.4617 -0.5356 0.6576
C65 C 0.5041(8) -0.4738(10) 0.6849(7)
H63 H 0.5207 -0.5156 0.6920
C66 C 0.5178(8) -0.4039(12) 0.6934(7)
H64 H 0.5460 -0.3962 0.6992
C67 C 0.4214(6) -0.2826(13) 0.6765(6)
H65 H 0.4191 -0.2603 0.7012
H66 H 0.4329 -0.2437 0.6605
C68 C 0.3528(6) -0.3286(9) 0.6832(5)
C69 C 0.1131(5) -0.4099(9) 0.7356(4)
C70 C 0.1250(6) -0.4798(12) 0.7247(8)
H67 H 0.1452 -0.4827 0.7069
C71 C 0.1108(8) -0.5415(13) 0.7368(8)
H68 H 0.1218 -0.5871 0.7277
C72 C 0.0806(7) -0.5468(13) 0.7624(8)
H69 H 0.0709 -0.5930 0.7719
C73 C 0.0650(6) -0.4712(9) 0.7731(6)
H70 H 0.0428 -0.4667 0.7890
C74 C 0.1297(5) -0.3378(9) 0.7225(4)
H71 H 0.1405 -0.3098 0.7442
H72 H 0.1063 -0.3083 0.7120
C75 C 0.2007(6) -0.3453(11) 0.7055(6)
C76 C 0.2599(5) -0.3399(8) 0.6165(4)
C77 C 0.3011(5) -0.3367(8) 0.6310(5)
H73 H 0.3231 -0.3361 0.6148
C78 C 0.3096(5) -0.3343(8) 0.6690(5)
C79 C 0.2761(5) -0.3392(8) 0.6931(4)
H74 H 0.2817 -0.3422 0.7187
C80 C 0.2361(5) -0.3398(8) 0.6800(4)
C81 C 0.2265(5) -0.3447(8) 0.6405(5)
H75 H 0.1991 -0.3509 0.6313
C82 C -0.0263(6) 0.2683(9) 0.5589(5)
C83 C -0.0576(7) 0.2558(12) 0.5817(5)
H76 H -0.0565 0.2128 0.5971
C84 C -0.0926(7) 0.3062(11) 0.5832(6)
H77 H -0.1143 0.2986 0.5994
C85 C -0.0916(5) 0.3676(10) 0.5584(5)
H78 H -0.1137 0.4023 0.5571
C86 C -0.0584(6) 0.3774(11) 0.5359(6)
H79 H -0.0589 0.4180 0.5190
C87 C 0.0109(6) 0.2126(10) 0.5577(5)
H80 H 0.0045 0.1737 0.5389
H81 H 0.0351 0.2409 0.5497
C88 C 0.0504(8) 0.2008(13) 0.6132(6)
C89 C 0.0401(7) -0.1390(12) 0.7724(6)
C90 C 0.0185(8) -0.0723(12) 0.7868(7)
H82 H 0.0183 -0.0259 0.7739
C91 C -0.0020(7) -0.0787(13) 0.8203(8)
H83 H -0.0160 -0.0352 0.8283
C92 C -0.0035(8) -0.134(2) 0.8396(7)
H84 H -0.0106 -0.1303 0.8644
C93 C 0.0063(8) -0.2095(12) 0.8226(6)
H85 H -0.0037 -0.2552 0.8323
C94 C 0.0563(8) -0.1441(9) 0.7368(6)
H86 H 0.0349 -0.1644 0.7196
H87 H 0.0796 -0.1798 0.7375
C95 C 0.0482(7) -0.0289(9) 0.7003(4)
C96 C 0.1308(6) 0.2462(13) 0.8293(6)
C97 C 0.0892(9) 0.2255(14) 0.8296(7)
H88 H 0.0766 0.1947 0.8112
C98 C 0.0665(9) 0.2556(16) 0.8610(7)
H89 H 0.0387 0.2425 0.8645
C99 C 0.0877(7) 0.3039(11) 0.8852(6)
H90 H 0.0724 0.3320 0.9020
C100 C 0.1270(9) 0.3124(12) 0.8860(6)
H91 H 0.1412 0.3357 0.9061
C101 C 0.1568(10) 0.2213(13) 0.8030(8)
H92 H 0.1786 0.1902 0.8151
H93 H 0.1703 0.2657 0.7923
C102 C 0.1227(8) 0.2058(7) 0.7401(4)
C103 C 0.0620(6) 0.1571(9) 0.6487(5)
C104 C 0.0480(5) 0.0847(8) 0.6572(4)
H94 H 0.0292 0.0592 0.6411
C105 C 0.0622(5) 0.0502(7) 0.6899(4)
C106 C 0.0831(6) 0.0906(9) 0.7158(4)
H95 H 0.0872 0.0689 0.7393
C107 C 0.0994(5) 0.1640(8) 0.7096(4)
C108 C 0.0866(7) 0.1978(9) 0.6762(5)
H96 H 0.0943 0.2484 0.6715
loop_
_geom_bond_atom_site_label_1
_geom_bond_atom_site_label_2
_geom_bond_site_symmetry_1
_geom_bond_site_symmetry_2
Pd1 I1 1_555 1_555
Pd2 I3 1_555 1_555
Pd3 I5 1_555 1_555
Pd4 I7 1_555 1_555
Pd5 I9 1_555 1_555
Pd6 I11 1_555 1_555
I2 Pd1 1_555 1_555
I4 Pd2 1_555 1_555
I6 Pd3 1_555 1_555
I8 Pd4 1_555 1_555
I10 Pd5 1_555 1_555
I12 Pd6 1_555 1_555
O1 C7 1_555 1_555
O2 C14 1_555 1_555
O3 C21 1_555 1_555
O4 C34 1_555 1_555
O5 C41 1_555 1_555
O6 C48 1_555 1_555
O7 C61 1_555 1_555
O8 C68 1_555 1_555
O9 C75 1_555 1_555
O10 C88 1_555 1_555
O11 C95 1_555 1_555
O12 C102 1_555 1_555
N1 Pd1 1_555 1_555
N2 H1 1_555 1_555
N3 Pd2 1_555 1_555
N4 H2 1_555 1_555
N5 Pd3 1_555 1_555
N6 H3 1_555 1_555
N7 Pd1 1_555 1_555
N8 H4 1_555 1_555
N9 Pd4 1_555 1_555
N10 H5 1_555 1_555
N11 Pd5 1_555 1_555
N12 H6 1_555 1_555
N13 Pd2 1_555 1_555
N14 H7 1_555 1_555
N15 Pd5 1_555 1_555
N16 H8 1_555 1_555
N17 Pd6 1_555 1_555
N18 H9 1_555 1_555
N19 Pd3 1_555 1_555
N20 H10 1_555 1_555
N21 Pd6 1_555 1_555
N22 H11 1_555 1_555
N23 Pd4 1_555 1_555
N24 H12 1_555 1_555
C1 N1 1_555 1_555
C2 C1 1_555 1_555
H13 C2 1_555 1_555
C3 C2 1_555 1_555
H14 C3 1_555 1_555
C4 C3 1_555 1_555
H15 C4 1_555 1_555
C5 N1 1_555 1_555
H16 C5 1_555 1_555
C6 N2 1_555 1_555
H17 C6 1_555 1_555
H18 C6 1_555 1_555
C7 N2 1_555 1_555
C8 N3 1_555 1_555
C9 C8 1_555 1_555
H19 C9 1_555 1_555
C10 C9 1_555 1_555
H20 C10 1_555 1_555
C11 C10 1_555 1_555
H21 C11 1_555 1_555
C12 N3 1_555 1_555
H22 C12 1_555 1_555
C13 N4 1_555 1_555
H23 C13 1_555 1_555
H24 C13 1_555 1_555
C14 N4 1_555 1_555
C15 N5 1_555 1_555
C16 C15 1_555 1_555
H25 C16 1_555 1_555
C17 C16 1_555 1_555
H26 C17 1_555 1_555
C18 C17 1_555 1_555
H27 C18 1_555 1_555
C19 N5 1_555 1_555
H28 C19 1_555 1_555
C20 N6 1_555 1_555
H29 C20 1_555 1_555
H30 C20 1_555 1_555
C21 N6 1_555 1_555
C22 C7 1_555 1_555
C23 C22 1_555 1_555
H31 C23 1_555 1_555
C24 C14 1_555 1_555
C25 C24 1_555 1_555
H32 C25 1_555 1_555
C26 C21 1_555 1_555
C27 C22 1_555 1_555
H33 C27 1_555 1_555
C28 N7 1_555 1_555
C29 C28 1_555 1_555
H34 C29 1_555 1_555
C30 C29 1_555 1_555
H35 C30 1_555 1_555
C31 C30 1_555 1_555
H36 C31 1_555 1_555
C32 N7 1_555 1_555
H37 C32 1_555 1_555
C33 N8 1_555 1_555
H38 C33 1_555 1_555
H39 C33 1_555 1_555
C34 N8 1_555 1_555
C35 N9 1_555 1_555
C36 C35 1_555 1_555
H40 C36 1_555 1_555
C37 C36 1_555 1_555
H41 C37 1_555 1_555
C38 C37 1_555 1_555
H42 C38 1_555 1_555
C39 N9 1_555 1_555
H43 C39 1_555 1_555
C40 N10 1_555 1_555
H44 C40 1_555 1_555
H45 C40 1_555 1_555
C41 N10 1_555 1_555
C42 N11 1_555 1_555
C43 C42 1_555 1_555
H46 C43 1_555 1_555
C44 C43 1_555 1_555
H47 C44 1_555 1_555
C45 C44 1_555 1_555
H48 C45 1_555 1_555
C46 N11 1_555 1_555
H49 C46 1_555 1_555
C47 N12 1_555 1_555
H50 C47 1_555 1_555
H51 C47 1_555 1_555
C48 N12 1_555 1_555
C49 C34 1_555 1_555
C50 C49 1_555 1_555
H52 C50 1_555 1_555
C51 C41 1_555 1_555
C52 C51 1_555 1_555
H53 C52 1_555 1_555
C53 C48 1_555 1_555
C54 C49 1_555 1_555
H54 C54 1_555 1_555
C55 N13 1_555 1_555
C56 C55 1_555 1_555
H55 C56 1_555 1_555
C57 C56 1_555 1_555
H56 C57 1_555 1_555
C58 C57 1_555 1_555
H57 C58 1_555 1_555
C59 N13 1_555 1_555
H58 C59 1_555 1_555
C60 N14 1_555 1_555
H59 C60 1_555 1_555
H60 C60 1_555 1_555
C61 N14 1_555 1_555
C62 N15 1_555 1_555
C63 C62 1_555 1_555
H61 C63 1_555 1_555
C64 C63 1_555 1_555
H62 C64 1_555 1_555
C65 C64 1_555 1_555
H63 C65 1_555 1_555
C66 N15 1_555 1_555
H64 C66 1_555 1_555
C67 N16 1_555 1_555
H65 C67 1_555 1_555
H66 C67 1_555 1_555
C68 N16 1_555 1_555
C69 N17 1_555 1_555
C70 C69 1_555 1_555
H67 C70 1_555 1_555
C71 C70 1_555 1_555
H68 C71 1_555 1_555
C72 C71 1_555 1_555
H69 C72 1_555 1_555
C73 N17 1_555 1_555
H70 C73 1_555 1_555
C74 N18 1_555 1_555
H71 C74 1_555 1_555
H72 C74 1_555 1_555
C75 N18 1_555 1_555
C76 C61 1_555 1_555
C77 C76 1_555 1_555
H73 C77 1_555 1_555
C78 C68 1_555 1_555
C79 C78 1_555 1_555
H74 C79 1_555 1_555
C80 C75 1_555 1_555
C81 C76 1_555 1_555
H75 C81 1_555 1_555
C82 N19 1_555 1_555
C83 C82 1_555 1_555
H76 C83 1_555 1_555
C84 C83 1_555 1_555
H77 C84 1_555 1_555
C85 C84 1_555 1_555
H78 C85 1_555 1_555
C86 N19 1_555 1_555
H79 C86 1_555 1_555
C87 N20 1_555 1_555
H80 C87 1_555 1_555
H81 C87 1_555 1_555
C88 N20 1_555 1_555
C89 N21 1_555 1_555
C90 C89 1_555 1_555
H82 C90 1_555 1_555
C91 C90 1_555 1_555
H83 C91 1_555 1_555
C92 C91 1_555 1_555
H84 C92 1_555 1_555
C93 N21 1_555 1_555
H85 C93 1_555 1_555
C94 N22 1_555 1_555
H86 C94 1_555 1_555
H87 C94 1_555 1_555
C95 N22 1_555 1_555
C96 N23 1_555 1_555
C97 C96 1_555 1_555
H88 C97 1_555 1_555
C98 C97 1_555 1_555
H89 C98 1_555 1_555
C99 C98 1_555 1_555
H90 C99 1_555 1_555
C100 N23 1_555 1_555
H91 C100 1_555 1_555
C101 N24 1_555 1_555
H92 C101 1_555 1_555
H93 C101 1_555 1_555
C102 N24 1_555 1_555
C103 C88 1_555 1_555
C104 C103 1_555 1_555
H94 C104 1_555 1_555
C105 C95 1_555 1_555
C106 C105 1_555 1_555
H95 C106 1_555 1_555
C107 C102 1_555 1_555
C108 C103 1_555 1_555
H96 C108 1_555 1_555
C1 C6 1_555 1_555
C4 C5 1_555 1_555
C8 C13 1_555 1_555
C11 C12 1_555 1_555
C15 C20 1_555 1_555
C18 C19 1_555 1_555
C23 C24 1_555 1_555
C25 C26 1_555 1_555
C26 C27 1_555 1_555
C28 C33 1_555 1_555
C31 C32 1_555 1_555
C35 C40 1_555 1_555
C38 C39 1_555 1_555
C42 C47 1_555 1_555
C45 C46 1_555 1_555
C50 C51 1_555 1_555
C52 C53 1_555 1_555
C53 C54 1_555 1_555
C55 C60 1_555 1_555
C58 C59 1_555 1_555
C62 C67 1_555 1_555
C65 C66 1_555 1_555
C69 C74 1_555 1_555
C72 C73 1_555 1_555
C77 C78 1_555 1_555
C79 C80 1_555 1_555
C80 C81 1_555 1_555
C82 C87 1_555 1_555
C85 C86 1_555 1_555
C89 C94 1_555 1_555
C92 C93 1_555 1_555
C96 C101 1_555 1_555
C99 C100 1_555 1_555
C104 C105 1_555 1_555
C106 C107 1_555 1_555
C107 C108 1_555 1_555

#END
