
#######################################################################
#
#                 Cambridge Crystallographic Data Centre
#                                CCDC 
#
#######################################################################
#
# If this CIF has been generated from an entry in the Cambridge 
# Structural Database, then it will include bibliographic, chemical, 
# crystal, experimental, refinement or atomic coordinate data resulting 
# from the CCDC's data processing and validation procedures.
#
#######################################################################

data_ATUHUT
_chemical_formula_moiety         
'C76 H76 B2 Co2 Fe2 N26 2+,2(C1 H4 O1),2(F6 P1 1-)'
_chemical_name_systematic        
"tetrakis(\m~2~-Cyano)-dicyano-tetrakis(2,2'-bipyridine)-bis(hydrogen tris(3,5-dimethylpyrazolyl)borate-N,N',N'')-di-cobalt-di-iron bis(hexafluorophosphate) methanol solvate"
_symmetry_cell_setting           monoclinic
_symmetry_space_group_name_H-M   'P 21/n'
_symmetry_Int_Tables_number      14
_space_group_name_Hall           '-P 2yn'
loop_
_symmetry_equiv_pos_site_id
_symmetry_equiv_pos_as_xyz
1 x,y,z
2 1/2-x,1/2+y,1/2-z
3 -x,-y,-z
4 1/2+x,1/2-y,1/2+z
_cell_length_a                   14.255(6)
_cell_length_b                   12.020(5)
_cell_length_c                   25.401(11)
_cell_angle_alpha                90
_cell_angle_beta                 105.657(9)
_cell_angle_gamma                90
_cell_volume                     4190.84
_exptl_crystal_colour            red
_exptl_crystal_description       plate
_cell_formula_units_Z            2
loop_
_atom_site_label
_atom_site_type_symbol
_atom_site_fract_x
_atom_site_fract_y
_atom_site_fract_z
Co1 Co -0.16988(4) 0.31075(4) 0.03978(2)
Fe1 Fe 0.20159(4) 0.37424(4) 0.10143(2)
N1 N -0.1827(2) 0.4281(3) -0.02255(13)
N2 N -0.0175(2) 0.3249(3) 0.06027(13)
N3 N 0.1257(3) 0.5463(3) 0.16905(14)
N4 N 0.2375(2) 0.2751(3) 0.04615(13)
N5 N 0.3144(2) 0.2049(3) 0.06413(13)
N6 N 0.3415(2) 0.4068(3) 0.13440(13)
N7 N 0.4048(2) 0.3177(3) 0.14423(13)
N8 N 0.2130(2) 0.2463(3) 0.15259(13)
N9 N 0.2881(2) 0.1728(3) 0.15540(13)
N10 N -0.1656(2) 0.1711(3) 0.09305(13)
N11 N -0.1549(2) 0.1721(3) -0.00892(13)
N12 N -0.3245(2) 0.3220(3) 0.02375(13)
N13 N -0.1879(2) 0.4250(2) 0.09917(13)
C1 C -0.1896(3) 0.5021(3) -0.05205(16)
C2 C 0.0647(3) 0.3424(3) 0.07313(15)
C3 C 0.1578(3) 0.4795(3) 0.14673(15)
C4 C 0.1602(3) 0.2038(3) 0.18471(15)
C5 C 0.2005(3) 0.1039(3) 0.20664(16)
H2 H 0.1770 0.0567 0.2303
C6 C 0.2813(3) 0.0856(3) 0.18769(16)
C7 C 0.3947(3) 0.4973(3) 0.15539(16)
C8 C 0.4902(3) 0.4650(4) 0.17903(16)
H3 H 0.5425 0.5120 0.1972
C9 C 0.4951(3) 0.3519(4) 0.17122(16)
C10 C 0.2070(3) 0.2655(3) -0.00860(16)
C11 C 0.2670(3) 0.1882(3) -0.02528(17)
H4 H 0.2630 0.1660 -0.0617
C12 C 0.3329(3) 0.1509(3) 0.02163(17)
C13 C -0.1768(3) 0.1737(3) 0.14391(17)
H5 H -0.1994 0.2408 0.1561
C14 C -0.1575(3) 0.0850(4) 0.17937(18)
H6 H -0.1686 0.0898 0.2145
C15 C -0.1216(3) -0.0114(4) 0.16235(18)
H7 H -0.1057 -0.0737 0.1861
C16 C -0.1091(3) -0.0160(3) 0.11029(18)
H8 H -0.0832 -0.0810 0.0982
C17 C -0.1348(3) 0.0752(3) 0.07578(16)
C18 C -0.1340(3) 0.0744(3) 0.01743(17)
C19 C -0.1138(3) -0.0205(3) -0.00875(17)
H9 H -0.0974 -0.0881 0.0109
C20 C -0.1177(3) -0.0155(3) -0.06375(18)
H10 H -0.1068 -0.0803 -0.0827
C21 C -0.1378(3) 0.0848(3) -0.09060(18)
H11 H -0.1393 0.0907 -0.1281
C22 C -0.1556(3) 0.1769(3) -0.06193(17)
H12 H -0.1688 0.2462 -0.0805
C23 C -0.3904(3) 0.2684(3) -0.01572(17)
H13 H -0.3673 0.2192 -0.0387
C24 C -0.4892(3) 0.2803(4) -0.02488(18)
H14 H -0.5334 0.2415 -0.0537
C25 C -0.5226(3) 0.3511(3) 0.00943(17)
H15 H -0.5905 0.3606 0.0049
C26 C -0.4559(3) 0.4072(3) 0.05003(16)
H16 H -0.4776 0.4550 0.0741
C27 C -0.3567(3) 0.3939(3) 0.05585(16)
C28 C -0.2802(3) 0.4542(3) 0.09723(16)
C29 C -0.3002(3) 0.5359(3) 0.13084(17)
H17 H -0.3655 0.5581 0.1275
C30 C -0.2237(3) 0.5853(4) 0.16966(18)
H18 H -0.2361 0.6414 0.1933
C31 C -0.1303(3) 0.5524(3) 0.17340(16)
H19 H -0.0770 0.5828 0.2005
C32 C -0.1155(3) 0.4737(3) 0.13688(16)
H20 H -0.0504 0.4531 0.1386
C33 C 0.0719(3) 0.2579(3) 0.19382(16)
H21 H 0.0838 0.3378 0.1998
H22 H 0.0572 0.2250 0.2260
H23 H 0.0166 0.2465 0.1617
C34 C 0.3514(3) -0.0086(3) 0.19798(18)
H24 H 0.3575 -0.0378 0.1630
H25 H 0.3278 -0.0675 0.2178
H26 H 0.4152 0.0175 0.2199
C35 C 0.3554(3) 0.6130(3) 0.15172(17)
H27 H 0.3252 0.6318 0.1133
H28 H 0.4086 0.6652 0.1670
H29 H 0.3066 0.6181 0.1724
C36 C 0.5793(3) 0.2741(4) 0.1877(2)
H30 H 0.5657 0.2173 0.2123
H31 H 0.6379 0.3156 0.2065
H32 H 0.5896 0.2382 0.1551
C37 C 0.1183(3) 0.3202(3) -0.04409(16)
H33 H 0.0608 0.2962 -0.0329
H34 H 0.1107 0.2992 -0.0823
H35 H 0.1251 0.4012 -0.0404
C38 C 0.4098(3) 0.0639(4) 0.0286(2)
H36 H 0.4732 0.0959 0.0475
H37 H 0.4121 0.0365 -0.0074
H38 H 0.3949 0.0021 0.0501
B1 B 0.3657(3) 0.2006(4) 0.12578(19)
H42 H 0.4193 0.1443 0.1340
Co1B Co 0.16988(4) 0.68925(4) -0.03978(2)
Fe1B Fe -0.20159(4) 0.62576(4) -0.10143(2)
N1B N 0.1827(2) 0.5719(3) 0.02255(13)
N2B N 0.0175(2) 0.6751(3) -0.06027(13)
N3B N -0.1257(3) 0.4537(3) -0.16905(14)
N4B N -0.2375(2) 0.7249(3) -0.04615(13)
N5B N -0.3144(2) 0.7951(3) -0.06413(13)
N6B N -0.3415(2) 0.5932(3) -0.13440(13)
N7B N -0.4048(2) 0.6823(3) -0.14423(13)
N8B N -0.2130(2) 0.7537(3) -0.15259(13)
N9B N -0.2881(2) 0.8272(3) -0.15540(13)
N10B N 0.1656(2) 0.8289(3) -0.09305(13)
N11B N 0.1549(2) 0.8279(3) 0.00892(13)
N12B N 0.3245(2) 0.6780(3) -0.02375(13)
N13B N 0.1879(2) 0.5750(2) -0.09917(13)
C1B C 0.1896(3) 0.4979(3) 0.05205(16)
C2B C -0.0647(3) 0.6576(3) -0.07313(15)
C3B C -0.1578(3) 0.5205(3) -0.14673(15)
C4B C -0.1602(3) 0.7962(3) -0.18471(15)
C5B C -0.2005(3) 0.8961(3) -0.20664(16)
H2B H -0.1770 0.9433 -0.2303
C6B C -0.2813(3) 0.9144(3) -0.18769(16)
C7B C -0.3947(3) 0.5027(3) -0.15539(16)
C8B C -0.4902(3) 0.5350(4) -0.17903(16)
H3B H -0.5425 0.4880 -0.1972
C9B C -0.4951(3) 0.6481(4) -0.17122(16)
C10B C -0.2070(3) 0.7345(3) 0.00860(16)
C11B C -0.2670(3) 0.8118(3) 0.02528(17)
H4B H -0.2630 0.8340 0.0617
C12B C -0.3329(3) 0.8491(3) -0.02163(17)
C13B C 0.1768(3) 0.8263(3) -0.14391(17)
H5B H 0.1994 0.7592 -0.1561
C14B C 0.1575(3) 0.9150(4) -0.17937(18)
H6B H 0.1686 0.9102 -0.2145
C15B C 0.1216(3) 1.0114(4) -0.16235(18)
H7B H 0.1057 1.0737 -0.1861
C16B C 0.1091(3) 1.0160(3) -0.11029(18)
H8B H 0.0832 1.0810 -0.0982
C17B C 0.1348(3) 0.9248(3) -0.07578(16)
C18B C 0.1340(3) 0.9256(3) -0.01743(17)
C19B C 0.1138(3) 1.0205(3) 0.00875(17)
H9B H 0.0974 1.0881 -0.0109
C20B C 0.1177(3) 1.0155(3) 0.06375(18)
H10B H 0.1068 1.0803 0.0827
C21B C 0.1378(3) 0.9152(3) 0.09060(18)
H11B H 0.1393 0.9093 0.1281
C22B C 0.1556(3) 0.8231(3) 0.06193(17)
H12B H 0.1688 0.7538 0.0805
C23B C 0.3904(3) 0.7316(3) 0.01572(17)
H13B H 0.3673 0.7808 0.0387
C24B C 0.4892(3) 0.7197(4) 0.02488(18)
H14B H 0.5334 0.7585 0.0537
C25B C 0.5226(3) 0.6489(3) -0.00943(17)
H15B H 0.5905 0.6394 -0.0049
C26B C 0.4559(3) 0.5928(3) -0.05003(16)
H16B H 0.4776 0.5450 -0.0741
C27B C 0.3567(3) 0.6061(3) -0.05585(16)
C28B C 0.2802(3) 0.5458(3) -0.09723(16)
C29B C 0.3002(3) 0.4641(3) -0.13084(17)
H17B H 0.3655 0.4419 -0.1275
C30B C 0.2237(3) 0.4147(4) -0.16966(18)
H18B H 0.2361 0.3586 -0.1933
C31B C 0.1303(3) 0.4476(3) -0.17340(16)
H19B H 0.0770 0.4172 -0.2005
C32B C 0.1155(3) 0.5263(3) -0.13688(16)
H20B H 0.0504 0.5469 -0.1386
C33B C -0.0719(3) 0.7421(3) -0.19382(16)
H21B H -0.0838 0.6622 -0.1998
H22B H -0.0572 0.7750 -0.2260
H23B H -0.0166 0.7535 -0.1617
C34B C -0.3514(3) 1.0086(3) -0.19798(18)
H24B H -0.3575 1.0378 -0.1630
H25B H -0.3278 1.0675 -0.2178
H26B H -0.4152 0.9825 -0.2199
C35B C -0.3554(3) 0.3870(3) -0.15172(17)
H27B H -0.3252 0.3682 -0.1133
H28B H -0.4086 0.3348 -0.1670
H29B H -0.3066 0.3819 -0.1724
C36B C -0.5793(3) 0.7259(4) -0.1877(2)
H30B H -0.5657 0.7827 -0.2123
H31B H -0.6379 0.6844 -0.2065
H32B H -0.5896 0.7618 -0.1551
C37B C -0.1183(3) 0.6798(3) 0.04409(16)
H33B H -0.0608 0.7038 0.0329
H34B H -0.1107 0.7008 0.0823
H35B H -0.1251 0.5988 0.0404
C38B C -0.4098(3) 0.9361(4) -0.0286(2)
H36B H -0.4732 0.9041 -0.0475
H37B H -0.4121 0.9635 0.0074
H38B H -0.3949 0.9979 -0.0501
B1B B -0.3657(3) 0.7994(4) -0.12578(19)
H42B H -0.4193 0.8557 -0.1340
P1 P 0.60645(8) 0.85510(9) 0.18400(5)
F1 F 0.5946(2) 0.7230(2) 0.18165(15)
F2 F 0.6601(2) 0.8474(3) 0.13670(13)
F3 F 0.7082(2) 0.8428(3) 0.22806(13)
F4 F 0.6168(2) 0.9861(2) 0.18637(15)
F5 F 0.5521(2) 0.8598(2) 0.23065(11)
F6 F 0.5039(2) 0.8652(3) 0.13890(11)
O1 O 0.0407(3) 0.7622(3) 0.16992(14)
H1 H 0.0582 0.6980 0.1636
C39 C 0.1023(4) 0.8015(4) 0.21841(19)
H39 H 0.1697 0.7999 0.2160
H40 H 0.0963 0.7543 0.2488
H41 H 0.0843 0.8781 0.2247
loop_
_geom_bond_atom_site_label_1
_geom_bond_atom_site_label_2
_geom_bond_site_symmetry_1
_geom_bond_site_symmetry_2
Co1 N1 1_555 1_555
Fe1 N4 1_555 1_555
P1 F1 1_555 1_555
O1 H1 1_555 1_555
N1 C1 1_555 1_555
N2 Co1 1_555 1_555
N3 C3 1_555 1_555
N4 N5 1_555 1_555
N5 C12 1_555 1_555
N6 Fe1 1_555 1_555
N7 N6 1_555 1_555
N8 Fe1 1_555 1_555
N9 N8 1_555 1_555
N10 Co1 1_555 1_555
N11 Co1 1_555 1_555
N12 Co1 1_555 1_555
N13 Co1 1_555 1_555
C1 Fe1B 1_555 1_555
C2 Fe1 1_555 1_555
C3 Fe1 1_555 1_555
C4 N8 1_555 1_555
C5 C4 1_555 1_555
H2 C5 1_555 1_555
C6 N9 1_555 1_555
C7 N6 1_555 1_555
C8 C7 1_555 1_555
H3 C8 1_555 1_555
C9 N7 1_555 1_555
C10 N4 1_555 1_555
C11 C10 1_555 1_555
H4 C11 1_555 1_555
C12 C11 1_555 1_555
C13 N10 1_555 1_555
H5 C13 1_555 1_555
C14 C13 1_555 1_555
H6 C14 1_555 1_555
C15 C14 1_555 1_555
H7 C15 1_555 1_555
C16 C15 1_555 1_555
H8 C16 1_555 1_555
C17 N10 1_555 1_555
C18 N11 1_555 1_555
C19 C18 1_555 1_555
H9 C19 1_555 1_555
C20 C19 1_555 1_555
H10 C20 1_555 1_555
C21 C20 1_555 1_555
H11 C21 1_555 1_555
C22 N11 1_555 1_555
H12 C22 1_555 1_555
C23 N12 1_555 1_555
H13 C23 1_555 1_555
C24 C23 1_555 1_555
H14 C24 1_555 1_555
C25 C24 1_555 1_555
H15 C25 1_555 1_555
C26 C25 1_555 1_555
H16 C26 1_555 1_555
C27 N12 1_555 1_555
C28 N13 1_555 1_555
C29 C28 1_555 1_555
H17 C29 1_555 1_555
C30 C29 1_555 1_555
H18 C30 1_555 1_555
C31 C30 1_555 1_555
H19 C31 1_555 1_555
C32 N13 1_555 1_555
H20 C32 1_555 1_555
C33 C4 1_555 1_555
H21 C33 1_555 1_555
H22 C33 1_555 1_555
H23 C33 1_555 1_555
C34 C6 1_555 1_555
H24 C34 1_555 1_555
H25 C34 1_555 1_555
H26 C34 1_555 1_555
C35 C7 1_555 1_555
H27 C35 1_555 1_555
H28 C35 1_555 1_555
H29 C35 1_555 1_555
C36 C9 1_555 1_555
H30 C36 1_555 1_555
H31 C36 1_555 1_555
H32 C36 1_555 1_555
C37 C10 1_555 1_555
H33 C37 1_555 1_555
H34 C37 1_555 1_555
H35 C37 1_555 1_555
C38 C12 1_555 1_555
H36 C38 1_555 1_555
H37 C38 1_555 1_555
H38 C38 1_555 1_555
C39 O1 1_555 1_555
H39 C39 1_555 1_555
H40 C39 1_555 1_555
H41 C39 1_555 1_555
F2 P1 1_555 1_555
F3 P1 1_555 1_555
F4 P1 1_555 1_555
F5 P1 1_555 1_555
F6 P1 1_555 1_555
B1 N5 1_555 1_555
H42 B1 1_555 1_555
Co1B N1B 1_555 1_555
Fe1B N4B 1_555 1_555
N1B C1B 1_555 1_555
N2B Co1B 1_555 1_555
N3B C3B 1_555 1_555
N4B N5B 1_555 1_555
N5B C12B 1_555 1_555
N6B Fe1B 1_555 1_555
N7B N6B 1_555 1_555
N8B Fe1B 1_555 1_555
N9B N8B 1_555 1_555
N10B Co1B 1_555 1_555
N11B Co1B 1_555 1_555
N12B Co1B 1_555 1_555
N13B Co1B 1_555 1_555
C1B Fe1 1_555 1_555
C2B Fe1B 1_555 1_555
C3B Fe1B 1_555 1_555
C4B N8B 1_555 1_555
C5B C4B 1_555 1_555
H2B C5B 1_555 1_555
C6B N9B 1_555 1_555
C7B N6B 1_555 1_555
C8B C7B 1_555 1_555
H3B C8B 1_555 1_555
C9B N7B 1_555 1_555
C10B N4B 1_555 1_555
C11B C10B 1_555 1_555
H4B C11B 1_555 1_555
C12B C11B 1_555 1_555
C13B N10B 1_555 1_555
H5B C13B 1_555 1_555
C14B C13B 1_555 1_555
H6B C14B 1_555 1_555
C15B C14B 1_555 1_555
H7B C15B 1_555 1_555
C16B C15B 1_555 1_555
H8B C16B 1_555 1_555
C17B N10B 1_555 1_555
C18B N11B 1_555 1_555
C19B C18B 1_555 1_555
H9B C19B 1_555 1_555
C20B C19B 1_555 1_555
H10B C20B 1_555 1_555
C21B C20B 1_555 1_555
H11B C21B 1_555 1_555
C22B N11B 1_555 1_555
H12B C22B 1_555 1_555
C23B N12B 1_555 1_555
H13B C23B 1_555 1_555
C24B C23B 1_555 1_555
H14B C24B 1_555 1_555
C25B C24B 1_555 1_555
H15B C25B 1_555 1_555
C26B C25B 1_555 1_555
H16B C26B 1_555 1_555
C27B N12B 1_555 1_555
C28B N13B 1_555 1_555
C29B C28B 1_555 1_555
H17B C29B 1_555 1_555
C30B C29B 1_555 1_555
H18B C30B 1_555 1_555
C31B C30B 1_555 1_555
H19B C31B 1_555 1_555
C32B N13B 1_555 1_555
H20B C32B 1_555 1_555
C33B C4B 1_555 1_555
H21B C33B 1_555 1_555
H22B C33B 1_555 1_555
H23B C33B 1_555 1_555
C34B C6B 1_555 1_555
H24B C34B 1_555 1_555
H25B C34B 1_555 1_555
H26B C34B 1_555 1_555
C35B C7B 1_555 1_555
H27B C35B 1_555 1_555
H28B C35B 1_555 1_555
H29B C35B 1_555 1_555
C36B C9B 1_555 1_555
H30B C36B 1_555 1_555
H31B C36B 1_555 1_555
H32B C36B 1_555 1_555
C37B C10B 1_555 1_555
H33B C37B 1_555 1_555
H34B C37B 1_555 1_555
H35B C37B 1_555 1_555
C38B C12B 1_555 1_555
H36B C38B 1_555 1_555
H37B C38B 1_555 1_555
H38B C38B 1_555 1_555
B1B N5B 1_555 1_555
H42B B1B 1_555 1_555
N2 C2 1_555 1_555
N7 B1 1_555 1_555
N9 B1 1_555 1_555
C5 C6 1_555 1_555
C8 C9 1_555 1_555
C16 C17 1_555 1_555
C17 C18 1_555 1_555
C21 C22 1_555 1_555
C26 C27 1_555 1_555
C27 C28 1_555 1_555
C31 C32 1_555 1_555
N2B C2B 1_555 1_555
N7B B1B 1_555 1_555
N9B B1B 1_555 1_555
C5B C6B 1_555 1_555
C8B C9B 1_555 1_555
C16B C17B 1_555 1_555
C17B C18B 1_555 1_555
C21B C22B 1_555 1_555
C26B C27B 1_555 1_555
C27B C28B 1_555 1_555
C31B C32B 1_555 1_555

#END
