
#######################################################################
#
#                 Cambridge Crystallographic Data Centre
#                                CCDC 
#
#######################################################################
#
# If this CIF has been generated from an entry in the Cambridge 
# Structural Database, then it will include bibliographic, chemical, 
# crystal, experimental, refinement or atomic coordinate data resulting 
# from the CCDC's data processing and validation procedures.
#
#######################################################################

data_AVANEQ
_chemical_formula_moiety         'C88 H144 O8 P8 Pt4,2(C1 H1 Cl3)'
_chemical_name_systematic        
"bis((\m~2~-trans,trans-Hexa-2,4-dien-1,6-dioato-O,O')-(\m~2~-anthracene-1,8-diyl))-octakis(triethylphosphine)-tetra-platinum chloroform solvate"
_symmetry_cell_setting           triclinic
_symmetry_space_group_name_H-M   'P -1'
_symmetry_Int_Tables_number      2
_space_group_name_Hall           '-P 1'
loop_
_symmetry_equiv_pos_site_id
_symmetry_equiv_pos_as_xyz
1 x,y,z
2 -x,-y,-z
_cell_length_a                   12.2930(2)
_cell_length_b                   13.3346(2)
_cell_length_c                   18.4568(3)
_cell_angle_alpha                83.6936(11)
_cell_angle_beta                 82.6978(9)
_cell_angle_gamma                63.3960(10)
_cell_volume                     2678.43
_exptl_crystal_colour            'pale yellow'
_exptl_crystal_description       plate
_cell_formula_units_Z            1
_exptl_crystal_recrystallization_method acetone/chloroform/dichloromethane
loop_
_atom_site_label
_atom_site_type_symbol
_atom_site_fract_x
_atom_site_fract_y
_atom_site_fract_z
Pt1 Pt 0.786291(17) 0.778039(16) -0.194193(10)
Pt2 Pt 0.392929(18) 0.451735(16) 0.325820(11)
P1 P 0.64451(14) 0.96396(12) -0.19571(8)
P2 P 0.92997(13) 0.59323(12) -0.19062(8)
P3 P 0.24512(15) 0.61903(13) 0.36857(9)
P4 P 0.56759(14) 0.29422(14) 0.29418(9)
O1 O 0.7224(4) 0.7456(3) -0.0864(2)
O2 O 0.8175(4) 0.8263(4) -0.0353(2)
O3 O 0.4225(4) 0.5323(4) 0.2252(2)
O4 O 0.5142(5) 0.6210(4) 0.2710(2)
C1 C 0.7546(5) 0.7744(5) -0.0316(3)
C2 C 0.7103(5) 0.7412(5) 0.0416(3)
H1 H 0.7388 0.7545 0.0833
C3 C 0.6339(5) 0.6943(5) 0.0530(3)
H2 H 0.6062 0.6782 0.0120
C4 C 0.5912(5) 0.6669(5) 0.1262(3)
H3 H 0.6212 0.6835 0.1660
C5 C 0.5149(6) 0.6213(5) 0.1426(3)
H4 H 0.4802 0.6068 0.1042
C6 C 0.4817(6) 0.5917(5) 0.2199(3)
C7 C 0.3603(5) 0.3716(5) 0.4187(3)
C8 C 0.3978(5) 0.3830(5) 0.4841(3)
H5 H 0.4465 0.4220 0.4826
C9 C 0.3673(6) 0.3398(5) 0.5523(3)
H6 H 0.3950 0.3501 0.5954
C10 C 0.2981(5) 0.2833(5) 0.5565(3)
H7 H 0.2745 0.2572 0.6030
C11 C 0.2599(5) 0.2625(5) 0.4917(3)
C12 C 0.1898(5) 0.2039(5) 0.4948(3)
H8 H 0.1674 0.1769 0.5413
C13 C 0.1512(5) 0.1831(4) 0.4334(3)
C14 C 0.0733(5) 0.1284(5) 0.4391(3)
H9 H 0.0495 0.1032 0.4858
C15 C 0.0332(5) 0.1122(5) 0.3783(3)
H10 H -0.0227 0.0802 0.3826
C16 C 0.0750(5) 0.1432(5) 0.3081(3)
H11 H 0.0478 0.1288 0.2662
C17 C 0.8483(5) 0.8078(4) -0.2979(3)
C18 C 0.1892(5) 0.2186(4) 0.3623(3)
C19 C 0.2600(5) 0.2779(4) 0.3590(3)
H12 H 0.2861 0.3011 0.3123
C20 C 0.2942(5) 0.3047(4) 0.4213(3)
C21 C 0.5476(7) 1.0053(6) -0.2712(4)
H13 H 0.6004 0.9942 -0.3177
H14 H 0.5088 0.9538 -0.2689
C22 C 0.4477(7) 1.1251(6) -0.2735(4)
H15 H 0.3975 1.1393 -0.2266
H16 H 0.3963 1.1360 -0.3129
H17 H 0.4846 1.1774 -0.2825
C23 C 0.7086(6) 1.0654(5) -0.2073(4)
H18 H 0.7605 1.0541 -0.2541
H19 H 0.6411 1.1423 -0.2101
C24 C 0.7845(9) 1.0553(7) -0.1453(5)
H20 H 0.7317 1.0748 -0.0996
H21 H 0.8226 1.1066 -0.1566
H22 H 0.8482 0.9779 -0.1400
C25 C 0.5404(5) 1.0052(5) -0.1133(3)
H23 H 0.5893 0.9841 -0.0707
H24 H 0.4932 1.0880 -0.1162
C26 C 0.4505(6) 0.9532(6) -0.0999(4)
H25 H 0.3987 0.9763 -0.1406
H26 H 0.3993 0.9789 -0.0542
H27 H 0.4959 0.8711 -0.0962
C27 C 1.0522(5) 0.5572(5) -0.2643(3)
H28 H 1.0156 0.5698 -0.3112
H29 H 1.0894 0.6097 -0.2654
C28 C 1.1544(6) 0.4365(6) -0.2598(4)
H30 H 1.1893 0.4213 -0.2126
H31 H 1.2184 0.4277 -0.2996
H32 H 1.1208 0.3834 -0.2642
C29 C 0.8658(5) 0.4936(5) -0.1924(3)
H33 H 0.8297 0.5059 -0.2394
H34 H 0.9328 0.4164 -0.1902
C30 C 0.7684(6) 0.5031(6) -0.1299(4)
H35 H 0.8042 0.4879 -0.0830
H36 H 0.7373 0.4483 -0.1347
H37 H 0.7012 0.5791 -0.1318
C31 C 1.0075(6) 0.5500(5) -0.1061(3)
H38 H 0.9456 0.5661 -0.0636
H39 H 1.0600 0.4680 -0.1046
C32 C 1.0857(7) 0.6103(7) -0.1000(4)
H40 H 1.1485 0.5931 -0.1413
H41 H 1.1248 0.5851 -0.0540
H42 H 1.0339 0.6916 -0.1007
C33 C 0.1733(6) 0.7259(5) 0.2944(3)
H43 H 0.2345 0.7509 0.2705
H44 H 0.1546 0.6888 0.2574
C34 C 0.0578(6) 0.8294(6) 0.3155(4)
H45 H -0.0077 0.8077 0.3333
H46 H 0.0335 0.8824 0.2727
H47 H 0.0727 0.8653 0.3543
C35 C 0.3238(6) 0.6772(6) 0.4194(4)
H48 H 0.3478 0.6294 0.4651
H49 H 0.4002 0.6679 0.3896
C36 C 0.2589(8) 0.7968(7) 0.4401(5)
H50 H 0.2430 0.8469 0.3956
H51 H 0.3099 0.8122 0.4696
H52 H 0.1813 0.8095 0.4684
C37 C 0.1231(6) 0.6168(6) 0.4332(4)
H53 H 0.1581 0.5662 0.4762
H54 H 0.0719 0.6933 0.4503
C38 C 0.0443(6) 0.5770(6) 0.3993(4)
H55 H 0.0045 0.6303 0.3591
H56 H -0.0180 0.5724 0.4365
H57 H 0.0955 0.5027 0.3805
C39 C 0.5756(7) 0.2379(7) 0.2052(4)
H58 H 0.6423 0.1606 0.2039
H59 H 0.4982 0.2337 0.2015
C40 C 0.5979(8) 0.3090(8) 0.1381(4)
H60 H 0.5299 0.3846 0.1373
H61 H 0.6037 0.2733 0.0932
H62 H 0.6742 0.3141 0.1413
C41 C 0.6984(7) 0.3189(7) 0.2919(4)
H63 H 0.7727 0.2488 0.2806
H64 H 0.6947 0.3766 0.2524
C42 C 0.7070(7) 0.3592(8) 0.3666(4)
H65 H 0.6349 0.4299 0.3771
H66 H 0.7807 0.3709 0.3638
H67 H 0.7108 0.3021 0.4058
C43 C 0.5978(7) 0.1691(6) 0.3573(4)
H68 H 0.5941 0.1904 0.4076
H69 H 0.5315 0.1466 0.3561
C44 C 0.7221(8) 0.0656(8) 0.3411(7)
H70 H 0.7276 0.0437 0.2913
H71 H 0.7281 0.0029 0.3762
H72 H 0.7890 0.0848 0.3457
C17A C 0.1517(5) 0.1922(4) 0.2979(3)
Pt1A Pt 0.213709(17) 0.221961(16) 0.194193(10)
P1A P 0.35549(14) 0.03604(12) 0.19571(8)
C21A C 0.4524(7) -0.0053(6) 0.2712(4)
H13A H 0.3996 0.0058 0.3177
H14A H 0.4912 0.0462 0.2689
C22A C 0.5523(7) -0.1251(6) 0.2735(4)
H15A H 0.6025 -0.1393 0.2266
H16A H 0.6037 -0.1360 0.3129
H17A H 0.5154 -0.1774 0.2825
C23A C 0.2914(6) -0.0654(5) 0.2073(4)
H18A H 0.2395 -0.0541 0.2541
H19A H 0.3589 -0.1423 0.2101
C24A C 0.2155(9) -0.0553(7) 0.1453(5)
H20A H 0.2683 -0.0748 0.0996
H21A H 0.1774 -0.1066 0.1566
H22A H 0.1518 0.0221 0.1400
C25A C 0.4596(5) -0.0052(5) 0.1133(3)
H23A H 0.4107 0.0159 0.0707
H24A H 0.5068 -0.0880 0.1162
C26A C 0.5495(6) 0.0468(6) 0.0999(4)
H25A H 0.6013 0.0237 0.1406
H26A H 0.6007 0.0211 0.0542
H27A H 0.5041 0.1289 0.0962
P2A P 0.07003(13) 0.40677(12) 0.19062(8)
C27A C -0.0522(5) 0.4428(5) 0.2643(3)
H28A H -0.0156 0.4302 0.3112
H29A H -0.0894 0.3903 0.2654
C28A C -0.1544(6) 0.5635(6) 0.2598(4)
H30A H -0.1893 0.5787 0.2126
H31A H -0.2184 0.5723 0.2996
H32A H -0.1208 0.6166 0.2642
C29A C 0.1342(5) 0.5064(5) 0.1924(3)
H33A H 0.1703 0.4941 0.2394
H34A H 0.0672 0.5836 0.1902
C30A C 0.2316(6) 0.4969(6) 0.1299(4)
H35A H 0.1958 0.5121 0.0830
H36A H 0.2627 0.5517 0.1347
H37A H 0.2988 0.4209 0.1318
C31A C -0.0075(6) 0.4500(5) 0.1061(3)
H38A H 0.0544 0.4339 0.0636
H39A H -0.0600 0.5320 0.1046
C32A C -0.0857(7) 0.3897(7) 0.1000(4)
H40A H -0.1485 0.4069 0.1413
H41A H -0.1248 0.4149 0.0540
H42A H -0.0339 0.3084 0.1007
O1A O 0.2776(4) 0.2544(3) 0.0864(2)
C1A C 0.2454(5) 0.2256(5) 0.0316(3)
O2A O 0.1825(4) 0.1737(4) 0.0353(2)
C2A C 0.2897(5) 0.2588(5) -0.0416(3)
H1A H 0.2612 0.2455 -0.0833
C3A C 0.3661(5) 0.3057(5) -0.0530(3)
H2A H 0.3938 0.3218 -0.0120
C4A C 0.4088(5) 0.3331(5) -0.1262(3)
H3A H 0.3788 0.3165 -0.1660
C5A C 0.4851(6) 0.3787(5) -0.1426(3)
H4A H 0.5198 0.3932 -0.1042
C6A C 0.5183(6) 0.4083(5) -0.2199(3)
O3A O 0.5775(4) 0.4677(4) -0.2252(2)
Pt2A Pt 0.607071(18) 0.548265(16) -0.325820(11)
P3A P 0.75488(15) 0.38097(13) -0.36857(9)
C33A C 0.8267(6) 0.2741(5) -0.2944(3)
H43A H 0.7655 0.2491 -0.2705
H44A H 0.8454 0.3112 -0.2574
C34A C 0.9422(6) 0.1706(6) -0.3155(4)
H45A H 1.0077 0.1923 -0.3333
H46A H 0.9665 0.1176 -0.2727
H47A H 0.9273 0.1347 -0.3543
C35A C 0.6762(6) 0.3228(6) -0.4194(4)
H48A H 0.6522 0.3706 -0.4651
H49A H 0.5998 0.3321 -0.3896
C36A C 0.7411(8) 0.2032(7) -0.4401(5)
H50A H 0.7570 0.1531 -0.3956
H51A H 0.6901 0.1878 -0.4696
H52A H 0.8187 0.1905 -0.4684
C37A C 0.8769(6) 0.3832(6) -0.4332(4)
H53A H 0.8419 0.4338 -0.4762
H54A H 0.9281 0.3067 -0.4503
C38A C 0.9557(6) 0.4230(6) -0.3993(4)
H55A H 0.9955 0.3697 -0.3591
H56A H 1.0180 0.4276 -0.4365
H57A H 0.9045 0.4973 -0.3805
P4A P 0.43241(14) 0.70578(14) -0.29418(9)
C39A C 0.4244(7) 0.7621(7) -0.2052(4)
H58A H 0.3577 0.8394 -0.2039
H59A H 0.5018 0.7663 -0.2015
C40A C 0.4021(8) 0.6910(8) -0.1381(4)
H60A H 0.4701 0.6154 -0.1373
H61A H 0.3963 0.7267 -0.0932
H62A H 0.3258 0.6859 -0.1413
C41A C 0.3016(7) 0.6811(7) -0.2919(4)
H63A H 0.2273 0.7512 -0.2806
H64A H 0.3053 0.6234 -0.2524
C42A C 0.2930(7) 0.6408(8) -0.3666(4)
H65A H 0.3651 0.5701 -0.3771
H66A H 0.2193 0.6291 -0.3638
H67A H 0.2892 0.6979 -0.4058
C43A C 0.4022(7) 0.8309(6) -0.3573(4)
H68A H 0.4059 0.8096 -0.4076
H69A H 0.4685 0.8534 -0.3561
C44A C 0.2779(8) 0.9344(8) -0.3411(7)
H70A H 0.2724 0.9563 -0.2913
H71A H 0.2719 0.9971 -0.3762
H72A H 0.2110 0.9152 -0.3457
C7A C 0.6397(5) 0.6284(5) -0.4187(3)
C8A C 0.6022(5) 0.6170(5) -0.4841(3)
H5A H 0.5535 0.5780 -0.4826
C9A C 0.6327(6) 0.6602(5) -0.5523(3)
H6A H 0.6050 0.6499 -0.5954
C10A C 0.7019(5) 0.7167(5) -0.5565(3)
H7A H 0.7255 0.7428 -0.6030
C11A C 0.7401(5) 0.7375(5) -0.4917(3)
C12A C 0.8102(5) 0.7961(5) -0.4948(3)
H8A H 0.8326 0.8231 -0.5413
C13A C 0.8488(5) 0.8169(4) -0.4334(3)
C14A C 0.9267(5) 0.8716(5) -0.4391(3)
H9A H 0.9505 0.8968 -0.4858
C15A C 0.9668(5) 0.8878(5) -0.3783(3)
H10A H 1.0227 0.9198 -0.3826
C16A C 0.9250(5) 0.8568(5) -0.3081(3)
H11A H 0.9522 0.8712 -0.2662
C18A C 0.8108(5) 0.7814(4) -0.3623(3)
C19A C 0.7400(5) 0.7221(4) -0.3590(3)
H12A H 0.7139 0.6989 -0.3123
C20A C 0.7058(5) 0.6953(4) -0.4213(3)
O4A O 0.4858(5) 0.3790(4) -0.2710(2)
Cl1 Cl 0.8632(3) 0.8349(2) 0.17370(14)
Cl2 Cl 0.8930(2) 1.0183(2) 0.09040(19)
Cl3 Cl 1.0716(2) 0.7890(2) 0.06945(17)
C45 C 0.9177(8) 0.8790(7) 0.0886(5)
H73 H 0.8710 0.8745 0.0495
loop_
_geom_bond_atom_site_label_1
_geom_bond_atom_site_label_2
_geom_bond_site_symmetry_1
_geom_bond_site_symmetry_2
Pt1 P1 1_555 1_555
Pt2 P3 1_555 1_555
Cl1 C45 1_555 1_555
Cl2 C45 1_555 1_555
Cl3 C45 1_555 1_555
P1 C21 1_555 1_555
P2 Pt1 1_555 1_555
P3 C33 1_555 1_555
P4 Pt2 1_555 1_555
O1 Pt1 1_555 1_555
O2 C1 1_555 1_555
O3 Pt2 1_555 1_555
O4 C6 1_555 1_555
C1 O1 1_555 1_555
C2 C1 1_555 1_555
H1 C2 1_555 1_555
C3 C2 1_555 1_555
H2 C3 1_555 1_555
C4 C3 1_555 1_555
H3 C4 1_555 1_555
C5 C4 1_555 1_555
H4 C5 1_555 1_555
C6 O3 1_555 1_555
C7 Pt2 1_555 1_555
C8 C7 1_555 1_555
H5 C8 1_555 1_555
C9 C8 1_555 1_555
H6 C9 1_555 1_555
C10 C9 1_555 1_555
H7 C10 1_555 1_555
C11 C10 1_555 1_555
C12 C11 1_555 1_555
H8 C12 1_555 1_555
C13 C12 1_555 1_555
C14 C13 1_555 1_555
H9 C14 1_555 1_555
C15 C14 1_555 1_555
H10 C15 1_555 1_555
C16 C15 1_555 1_555
H11 C16 1_555 1_555
C17 Pt1 1_555 1_555
C18 C13 1_555 1_555
C19 C18 1_555 1_555
H12 C19 1_555 1_555
C20 C7 1_555 1_555
C21 H13 1_555 1_555
H14 C21 1_555 1_555
C22 C21 1_555 1_555
H15 C22 1_555 1_555
H16 C22 1_555 1_555
H17 C22 1_555 1_555
C23 P1 1_555 1_555
H18 C23 1_555 1_555
H19 C23 1_555 1_555
C24 C23 1_555 1_555
H20 C24 1_555 1_555
H21 C24 1_555 1_555
H22 C24 1_555 1_555
C25 P1 1_555 1_555
H23 C25 1_555 1_555
H24 C25 1_555 1_555
C26 C25 1_555 1_555
H25 C26 1_555 1_555
H26 C26 1_555 1_555
H27 C26 1_555 1_555
C27 P2 1_555 1_555
H28 C27 1_555 1_555
H29 C27 1_555 1_555
C28 C27 1_555 1_555
H30 C28 1_555 1_555
H31 C28 1_555 1_555
H32 C28 1_555 1_555
C29 P2 1_555 1_555
H33 C29 1_555 1_555
H34 C29 1_555 1_555
C30 C29 1_555 1_555
H35 C30 1_555 1_555
H36 C30 1_555 1_555
H37 C30 1_555 1_555
C31 P2 1_555 1_555
H38 C31 1_555 1_555
H39 C31 1_555 1_555
C32 C31 1_555 1_555
H40 C32 1_555 1_555
H41 C32 1_555 1_555
H42 C32 1_555 1_555
C33 H43 1_555 1_555
H44 C33 1_555 1_555
C34 C33 1_555 1_555
H45 C34 1_555 1_555
H46 C34 1_555 1_555
H47 C34 1_555 1_555
C35 P3 1_555 1_555
H48 C35 1_555 1_555
H49 C35 1_555 1_555
C36 C35 1_555 1_555
H50 C36 1_555 1_555
H51 C36 1_555 1_555
H52 C36 1_555 1_555
C37 P3 1_555 1_555
H53 C37 1_555 1_555
H54 C37 1_555 1_555
C38 C37 1_555 1_555
H55 C38 1_555 1_555
H56 C38 1_555 1_555
H57 C38 1_555 1_555
C39 P4 1_555 1_555
H58 C39 1_555 1_555
H59 C39 1_555 1_555
C40 C39 1_555 1_555
H60 C40 1_555 1_555
H61 C40 1_555 1_555
H62 C40 1_555 1_555
C41 P4 1_555 1_555
H63 C41 1_555 1_555
H64 C41 1_555 1_555
C42 C41 1_555 1_555
H65 C42 1_555 1_555
H66 C42 1_555 1_555
H67 C42 1_555 1_555
C43 P4 1_555 1_555
H68 C43 1_555 1_555
H69 C43 1_555 1_555
C44 C43 1_555 1_555
H70 C44 1_555 1_555
H71 C44 1_555 1_555
H72 C44 1_555 1_555
C45 H73 1_555 1_555
C17A C16 1_555 1_555
Pt1A C17A 1_555 1_555
P1A Pt1A 1_555 1_555
C21A P1A 1_555 1_555
H13A C21A 1_555 1_555
H14A C21A 1_555 1_555
C22A C21A 1_555 1_555
H15A C22A 1_555 1_555
H16A C22A 1_555 1_555
H17A C22A 1_555 1_555
C23A P1A 1_555 1_555
H18A C23A 1_555 1_555
H19A C23A 1_555 1_555
C24A C23A 1_555 1_555
H20A C24A 1_555 1_555
H21A C24A 1_555 1_555
H22A C24A 1_555 1_555
C25A P1A 1_555 1_555
H23A C25A 1_555 1_555
H24A C25A 1_555 1_555
C26A C25A 1_555 1_555
H25A C26A 1_555 1_555
H26A C26A 1_555 1_555
H27A C26A 1_555 1_555
P2A Pt1A 1_555 1_555
C27A P2A 1_555 1_555
H28A C27A 1_555 1_555
H29A C27A 1_555 1_555
C28A C27A 1_555 1_555
H30A C28A 1_555 1_555
H31A C28A 1_555 1_555
H32A C28A 1_555 1_555
C29A P2A 1_555 1_555
H33A C29A 1_555 1_555
H34A C29A 1_555 1_555
C30A C29A 1_555 1_555
H35A C30A 1_555 1_555
H36A C30A 1_555 1_555
H37A C30A 1_555 1_555
C31A P2A 1_555 1_555
H38A C31A 1_555 1_555
H39A C31A 1_555 1_555
C32A C31A 1_555 1_555
H40A C32A 1_555 1_555
H41A C32A 1_555 1_555
H42A C32A 1_555 1_555
O1A Pt1A 1_555 1_555
C1A O1A 1_555 1_555
O2A C1A 1_555 1_555
C2A C1A 1_555 1_555
H1A C2A 1_555 1_555
C3A C2A 1_555 1_555
H2A C3A 1_555 1_555
C4A C3A 1_555 1_555
H3A C4A 1_555 1_555
C5A C4A 1_555 1_555
H4A C5A 1_555 1_555
C6A C5A 1_555 1_555
O3A C6A 1_555 1_555
Pt2A O3A 1_555 1_555
P3A Pt2A 1_555 1_555
C33A P3A 1_555 1_555
H43A C33A 1_555 1_555
H44A C33A 1_555 1_555
C34A C33A 1_555 1_555
H45A C34A 1_555 1_555
H46A C34A 1_555 1_555
H47A C34A 1_555 1_555
C35A P3A 1_555 1_555
H48A C35A 1_555 1_555
H49A C35A 1_555 1_555
C36A C35A 1_555 1_555
H50A C36A 1_555 1_555
H51A C36A 1_555 1_555
H52A C36A 1_555 1_555
C37A P3A 1_555 1_555
H53A C37A 1_555 1_555
H54A C37A 1_555 1_555
C38A C37A 1_555 1_555
H55A C38A 1_555 1_555
H56A C38A 1_555 1_555
H57A C38A 1_555 1_555
P4A Pt2A 1_555 1_555
C39A P4A 1_555 1_555
H58A C39A 1_555 1_555
H59A C39A 1_555 1_555
C40A C39A 1_555 1_555
H60A C40A 1_555 1_555
H61A C40A 1_555 1_555
H62A C40A 1_555 1_555
C41A P4A 1_555 1_555
H63A C41A 1_555 1_555
H64A C41A 1_555 1_555
C42A C41A 1_555 1_555
H65A C42A 1_555 1_555
H66A C42A 1_555 1_555
H67A C42A 1_555 1_555
C43A P4A 1_555 1_555
H68A C43A 1_555 1_555
H69A C43A 1_555 1_555
C44A C43A 1_555 1_555
H70A C44A 1_555 1_555
H71A C44A 1_555 1_555
H72A C44A 1_555 1_555
C7A Pt2A 1_555 1_555
C8A C7A 1_555 1_555
H5A C8A 1_555 1_555
C9A C8A 1_555 1_555
H6A C9A 1_555 1_555
C10A C9A 1_555 1_555
H7A C10A 1_555 1_555
C11A C10A 1_555 1_555
C12A C11A 1_555 1_555
H8A C12A 1_555 1_555
C13A C12A 1_555 1_555
C14A C13A 1_555 1_555
H9A C14A 1_555 1_555
C15A C14A 1_555 1_555
H10A C15A 1_555 1_555
C16A C17 1_555 1_555
H11A C16A 1_555 1_555
C18A C17 1_555 1_555
C19A C18A 1_555 1_555
H12A C19A 1_555 1_555
C20A C7A 1_555 1_555
O4A C6A 1_555 1_555
C5 C6 1_555 1_555
C11 C20 1_555 1_555
C18 C17A 1_555 1_555
C19 C20 1_555 1_555
C11A C20A 1_555 1_555
C13A C18A 1_555 1_555
C15A C16A 1_555 1_555
C19A C20A 1_555 1_555

#END
