
#######################################################################
#
#                 Cambridge Crystallographic Data Centre
#                                CCDC 
#
#######################################################################
#
# If this CIF has been generated from an entry in the Cambridge 
# Structural Database, then it will include bibliographic, chemical, 
# crystal, experimental, refinement or atomic coordinate data resulting 
# from the CCDC's data processing and validation procedures.
#
#######################################################################

data_BAMQUD
_chemical_formula_moiety         
'C116 H95 B2 Fe2 N30 Ni2 S12 2+,2(C24 H20 B1 1-),4(C1 H4 O1),2(C3 H6 O1),8(H2 O1)'
_chemical_name_systematic        
"tetrakis(\m~2~-Cyano)-bis(hydrogen tris(3,5-dimethyl-1H-pyrazol-1-yl))-tetrakis(2-(5-(2,2':5',2''-terthiophen-3'-yl)-1H-pyrazol-3-yl)pyridine)-di-iron-di-nickel bis(tetraphenylborate) methanol acetone solvate octahydrate"
_symmetry_cell_setting           triclinic
_symmetry_space_group_name_H-M   'P -1'
_symmetry_Int_Tables_number      2
_space_group_name_Hall           '-P 1'
loop_
_symmetry_equiv_pos_site_id
_symmetry_equiv_pos_as_xyz
1 x,y,z
2 -x,-y,-z
_cell_length_a                   13.993(3)
_cell_length_b                   16.128(3)
_cell_length_c                   20.793(4)
_cell_angle_alpha                102.866(3)
_cell_angle_beta                 91.400(3)
_cell_angle_gamma                101.284(3)
_cell_volume                     4474.94
_exptl_crystal_colour            red
_exptl_crystal_description       plate
_cell_formula_units_Z            1
loop_
_atom_site_label
_atom_site_type_symbol
_atom_site_fract_x
_atom_site_fract_y
_atom_site_fract_z
C4 C 0.0890(4) 0.8507(4) 0.2307(3)
C15 C 0.1696(5) 0.9609(4) 0.1556(3)
C23 C 0.0079(5) 0.8176(4) 0.1856(3)
H18 H 0.0034 0.8418 0.1483
C26 C 0.2726(5) 0.8711(5) 0.2147(3)
C30 C 0.2648(5) 0.7960(5) 0.1646(4)
H22 H 0.2079 0.7784 0.1350
C31 C -0.0611(5) 0.7139(5) 0.2453(4)
H23 H -0.1104 0.6661 0.2494
C35 C 0.1998(6) 1.0078(5) 0.2856(4)
B1 B 0.1849(6) 0.9241(5) 0.2216(4)
C40 C 0.0894(5) 0.8123(4) 0.2844(3)
H29 H 0.1425 0.8326 0.3171
C41 C 0.0150(6) 0.7456(5) 0.2915(3)
H30 H 0.0171 0.7216 0.3292
C42 C 0.0913(6) 1.0005(4) 0.1459(4)
H31 H 0.0453 1.0054 0.1787
C46 C -0.0664(5) 0.7507(5) 0.1932(4)
H32 H -0.1211 0.7307 0.1618
C48 C 0.2260(10) 1.1591(7) 0.3912(6)
H34 H 0.2344 1.2087 0.4271
C49 C 0.1332(7) 1.0208(5) 0.3331(4)
H36 H 0.0754 0.9777 0.3305
C54 C 0.2316(6) 0.9583(5) 0.1049(4)
H41 H 0.2871 0.9335 0.1089
C55 C 0.0781(7) 1.0331(5) 0.0905(5)
H42 H 0.0243 1.0597 0.0858
C58 C 0.3339(6) 0.7461(6) 0.1556(4)
H45 H 0.3255 0.6961 0.1201
C60 C 0.4146(6) 0.7689(7) 0.1981(5)
H47 H 0.4636 0.7352 0.1913
C61 C 0.2812(7) 1.0762(6) 0.2908(4)
H48 H 0.3279 1.0722 0.2584
C62 C 0.4270(6) 0.8376(7) 0.2494(5)
H49 H 0.4828 0.8513 0.2797
C63 C 0.1437(8) 1.0263(6) 0.0428(5)
H50 H 0.1350 1.0488 0.0050
C64 C 0.3553(5) 0.8898(6) 0.2579(4)
H51 H 0.3643 0.9390 0.2941
C68 C 0.1480(8) 1.0952(7) 0.3849(5)
H54 H 0.1006 1.1001 0.4167
C73 C 0.2193(7) 0.9889(7) 0.0482(5)
H61 H 0.2637 0.9832 0.0144
C74 C 0.2950(9) 1.1523(7) 0.3445(6)
H62 H 0.3510 1.1976 0.3480
Ni1 Ni 1.08246(5) 0.43895(5) 0.34622(3)
Fe1 Fe 0.80504(5) 0.59179(5) 0.42722(4)
S1 S 1.42475(16) 0.53965(16) 0.22300(12)
S2 S 0.8546(2) 0.40289(15) -0.01120(10)
S3 S 1.52197(17) 0.33912(18) 0.13690(13)
N1 N 0.9740(4) 0.5005(3) 0.3824(2)
S4 S 1.1136(2) 0.34884(19) 0.08321(12)
N2 N 0.8864(3) 0.7093(3) 0.4365(2)
N3 N 0.7323(3) 0.6659(3) 0.3268(2)
N4 N 1.0023(4) 0.4410(4) 0.2026(2)
H1 H 0.9609 0.3906 0.1943
N5 N 0.7595(3) 0.5925(3) 0.3359(2)
C1 C 0.9107(4) 0.5358(4) 0.3968(3)
N6 N 1.0609(4) 0.4722(3) 0.2572(2)
N7 N 0.6761(3) 0.7134(3) 0.4370(2)
C2 C 0.7285(4) 0.4761(4) 0.4191(3)
N8 N 1.2589(4) 0.3751(4) 0.2701(3)
H2 H 1.3003 0.4255 0.2783
N9 N 0.6933(3) 0.6456(3) 0.4615(2)
N10 N 0.8461(3) 0.7700(3) 0.4157(2)
N11 N 1.1828(3) 0.5587(3) 0.3580(2)
C3 C 0.8478(4) 0.5856(4) 0.5137(3)
N12 N 0.9911(4) 0.3143(3) 0.3229(2)
N13 N 1.1747(4) 0.3621(3) 0.2982(2)
C5 C 1.4410(6) 0.3665(6) 0.1945(4)
C6 C 0.6211(4) 0.5671(4) 0.5460(3)
H3 H 0.6313 0.5122 0.5184
H4 H 0.5569 0.5576 0.5641
H5 H 0.6721 0.5882 0.5824
C7 C 0.5975(4) 0.7424(4) 0.4640(3)
C8 C 1.1123(5) 0.5483(4) 0.2516(3)
C9 C 1.1803(5) 0.5978(4) 0.3067(3)
C10 C 1.2961(4) 0.6835(5) 0.4182(3)
H6 H 1.3365 0.7125 0.4572
C11 C 1.0482(4) 0.7065(4) 0.4897(3)
H7 H 1.0222 0.6862 0.5281
H8 H 1.1107 0.7476 0.5032
H9 H 1.0582 0.6568 0.4557
C12 C 0.6256(4) 0.6322(4) 0.5056(3)
C13 C 0.7639(4) 0.4461(4) 0.2648(3)
H10 H 0.8283 0.4486 0.2857
H11 H 0.7633 0.4227 0.2170
H12 H 0.7139 0.4083 0.2834
C14 C 0.9786(4) 0.7499(4) 0.4630(3)
C16 C 0.9941(5) 0.8351(4) 0.4564(3)
H13 H 1.0524 0.8778 0.4700
C17 C 1.2361(5) 0.6801(4) 0.3093(3)
H14 H 1.2349 0.7062 0.2726
C18 C 0.9035(5) 0.2946(5) 0.3417(3)
H15 H 0.8731 0.3406 0.3621
C19 C 0.7043(4) 0.5724(5) 0.2310(3)
H16 H 0.6858 0.5457 0.1857
C20 C 0.6980(4) 0.6556(5) 0.2631(3)
C21 C 0.7431(4) 0.5345(5) 0.2774(3)
C22 C 1.2398(4) 0.6011(4) 0.4129(3)
H17 H 1.2415 0.5740 0.4490
C24 C 1.0839(5) 0.5648(5) 0.1910(3)
H19 H 1.1091 0.6142 0.1742
C25 C 0.5643(4) 0.6908(4) 0.5071(3)
H20 H 0.5096 0.6946 0.5329
C27 C 1.3598(6) 0.3009(6) 0.1885(4)
N14 N 0.6830(4) 0.4075(4) 0.4141(3)
C28 C 0.8799(6) 0.5244(5) 0.0926(3)
H21 H 0.8739 0.5751 0.1245
C29 C 1.2747(5) 0.3030(5) 0.2275(3)
C32 C 1.0129(5) 0.4950(5) 0.1614(3)
C33 C 1.4603(5) 0.4523(5) 0.2418(4)
C34 C 1.1328(5) 0.2781(5) 0.2739(3)
C36 C 0.6671(5) 0.7254(5) 0.2364(3)
H24 H 0.6138 0.7449 0.2612
H25 H 0.6448 0.7028 0.1896
H26 H 0.7226 0.7745 0.2409
C37 C 1.2928(5) 0.7225(5) 0.3661(4)
H27 H 1.3301 0.7795 0.3695
C38 C 1.0341(5) 0.2501(5) 0.2946(3)
C39 C 1.3663(7) 0.2281(6) 0.1364(4)
H28 H 1.3168 0.1767 0.1262
C43 C 0.9497(6) 0.4760(5) 0.1003(3)
C44 C 0.9118(5) 0.8469(4) 0.4271(3)
C45 C 0.8206(7) 0.4932(5) 0.0355(4)
C47 C 1.5030(4) 0.4684(6) 0.3052(3)
H33 H 1.5297 0.4290 0.3244
B2 B 0.7394(5) 0.7437(5) 0.3846(4)
H35 H 0.7183 0.7932 0.3706
C50 C 0.9498(6) 0.4061(5) 0.0479(3)
C51 C 0.8546(6) 0.2139(6) 0.3339(4)
H37 H 0.7894 0.2025 0.3466
C52 C 0.5610(5) 0.8164(4) 0.4481(3)
H38 H 0.6116 0.8695 0.4617
H39 H 0.5024 0.8240 0.4717
H40 H 0.5449 0.8045 0.4003
C53 C 1.0047(7) 0.3368(5) 0.0371(3)
C56 C 0.8993(7) 0.1463(6) 0.3071(5)
H43 H 0.8662 0.0878 0.3030
C57 C 1.4610(6) 0.5987(6) 0.2994(4)
H44 H 1.4541 0.6572 0.3141
C59 C 1.4992(6) 0.5578(7) 0.3369(4)
H46 H 1.5228 0.5839 0.3815
C65 C 1.4482(7) 0.2371(6) 0.1024(5)
C66 C 1.1930(6) 0.2369(5) 0.2286(4)
H52 H 1.1809 0.1780 0.2046
C67 C 1.1251(9) 0.2491(6) 0.0417(4)
H53 H 1.1773 0.2228 0.0509
C69 C 0.9668(10) 0.2544(6) -0.0120(3)
H55 H 0.9072 0.2350 -0.0389
C70 C 0.9913(6) 0.1640(6) 0.2865(4)
H56 H 1.0240 0.1190 0.2675
C71 C 0.8885(5) 0.9245(4) 0.4067(4)
H57 H 0.8640 0.9079 0.3601
H58 H 0.9477 0.9701 0.4125
H59 H 0.8386 0.9462 0.4340
C72 C 1.0522(10) 0.2101(7) -0.0064(4)
H60 H 1.0546 0.1563 -0.0359
N15 N 1.1247(3) 0.4214(3) 0.4365(2)
C78 C 1.4724(10) 0.1833(7) 0.0436(7)
S5 S 0.6400(7) 0.4693(6) -0.0260(5)
C79 C 0.5906(10) 0.5600(12) -0.0266(11)
H66 H 0.5312 0.5572 -0.0509
C80 C 0.6417(12) 0.6312(12) 0.0088(9)
H67 H 0.6211 0.6846 0.0117
C81 C 0.7381(8) 0.6290(8) 0.0469(6)
H68 H 0.7832 0.6742 0.0761
C82 C 0.7383(13) 0.5378(11) 0.0248(9)
S6 S 1.5385(3) 0.2109(3) -0.0148(2)
C83 C 1.447(3) 0.131(2) -0.0599(15)
C84 C 1.4194(15) 0.0728(14) -0.0282(11)
H70 H 1.3718 0.0218 -0.0471
C85 C 1.4654(11) 0.0886(10) 0.0411(8)
H71 H 1.4503 0.0518 0.0709
Ni1A Ni 0.91754(5) 0.56105(5) 0.65378(3)
Fe1A Fe 1.19496(5) 0.40821(5) 0.57278(4)
S1A S 0.57525(16) 0.46035(16) 0.77700(12)
S2A S 1.1454(2) 0.59711(15) 1.01120(10)
S3A S 0.47803(17) 0.66088(18) 0.86310(13)
N1A N 1.0260(4) 0.4995(3) 0.6176(2)
S4A S 0.8864(2) 0.65116(19) 0.91679(12)
N2A N 1.1136(3) 0.2907(3) 0.5635(2)
N3A N 1.2677(3) 0.3341(3) 0.6732(2)
N4A N 0.9977(4) 0.5590(4) 0.7974(2)
H1A H 1.0391 0.6094 0.8057
N5A N 1.2405(3) 0.4075(3) 0.6641(2)
C1A C 1.0893(4) 0.4642(4) 0.6032(3)
N6A N 0.9391(4) 0.5278(3) 0.7428(2)
N7A N 1.3239(3) 0.2866(3) 0.5630(2)
C2A C 1.2715(4) 0.5239(4) 0.5809(3)
N8A N 0.7411(4) 0.6249(4) 0.7299(3)
H2A H 0.6997 0.5745 0.7217
N9A N 1.3067(3) 0.3544(3) 0.5385(2)
N10A N 1.1539(3) 0.2300(3) 0.5843(2)
N11A N 0.8172(3) 0.4413(3) 0.6420(2)
C3A C 1.1522(4) 0.4144(4) 0.4863(3)
N12A N 1.0089(4) 0.6857(3) 0.6771(2)
N13A N 0.8253(4) 0.6379(3) 0.7018(2)
C5A C 0.5590(6) 0.6335(6) 0.8055(4)
C6A C 1.3789(4) 0.4329(4) 0.4540(3)
H3A H 1.3687 0.4878 0.4816
H4A H 1.4431 0.4424 0.4359
H5A H 1.3279 0.4118 0.4176
C7A C 1.4025(4) 0.2576(4) 0.5360(3)
C8A C 0.8877(5) 0.4517(4) 0.7484(3)
C9A C 0.8197(5) 0.4022(4) 0.6933(3)
C10A C 0.7039(4) 0.3165(5) 0.5818(3)
H6A H 0.6635 0.2875 0.5428
C11A C 0.9518(4) 0.2935(4) 0.5103(3)
H7A H 0.9778 0.3138 0.4719
H8A H 0.8893 0.2524 0.4968
H9A H 0.9418 0.3432 0.5443
C12A C 1.3744(4) 0.3678(4) 0.4944(3)
C13A C 1.2361(4) 0.5539(4) 0.7352(3)
H10A H 1.1717 0.5514 0.7143
H11A H 1.2367 0.5773 0.7830
H12A H 1.2861 0.5917 0.7166
C14A C 1.0214(4) 0.2501(4) 0.5370(3)
C16A C 1.0059(5) 0.1649(4) 0.5436(3)
H13A H 0.9476 0.1222 0.5300
C17A C 0.7639(5) 0.3199(4) 0.6907(3)
H14A H 0.7651 0.2938 0.7274
C18A C 1.0965(5) 0.7054(5) 0.6583(3)
H15A H 1.1269 0.6594 0.6379
C19A C 1.2957(4) 0.4276(5) 0.7690(3)
H16A H 1.3142 0.4543 0.8143
C20A C 1.3020(4) 0.3444(5) 0.7369(3)
C21A C 1.2569(4) 0.4655(5) 0.7226(3)
C22A C 0.7602(4) 0.3989(4) 0.5871(3)
H17A H 0.7585 0.4260 0.5510
C24A C 0.9161(5) 0.4352(5) 0.8090(3)
H19A H 0.8909 0.3858 0.8258
C25A C 1.4357(4) 0.3092(4) 0.4929(3)
H20A H 1.4904 0.3054 0.4671
C27A C 0.6402(6) 0.6991(6) 0.8115(4)
N14A N 1.3170(4) 0.5925(4) 0.5859(3)
C28A C 1.1201(6) 0.4756(5) 0.9074(3)
H21A H 1.1261 0.4249 0.8755
C29A C 0.7253(5) 0.6970(5) 0.7725(3)
C32A C 0.9871(5) 0.5050(5) 0.8386(3)
C33A C 0.5397(5) 0.5477(5) 0.7582(4)
C34A C 0.8672(5) 0.7219(5) 0.7261(3)
C36A C 1.3329(5) 0.2746(5) 0.7636(3)
H24A H 1.3862 0.2551 0.7388
H25A H 1.3552 0.2972 0.8104
H26A H 1.2774 0.2255 0.7591
C37A C 0.7072(5) 0.2775(5) 0.6339(4)
H27A H 0.6699 0.2205 0.6305
C38A C 0.9659(5) 0.7499(5) 0.7054(3)
C39A C 0.6337(7) 0.7719(6) 0.8636(4)
H28A H 0.6832 0.8233 0.8738
C43A C 1.0503(6) 0.5240(5) 0.8997(3)
C44A C 1.0882(5) 0.1531(4) 0.5729(3)
C45A C 1.1794(7) 0.5068(5) 0.9645(4)
C47A C 0.4970(4) 0.5316(6) 0.6948(3)
H33A H 0.4703 0.5710 0.6756
B2A B 1.2606(5) 0.2563(5) 0.6154(4)
H35A H 1.2817 0.2068 0.6294
C50A C 1.0502(6) 0.5939(5) 0.9521(3)
C51A C 1.1454(6) 0.7861(6) 0.6661(4)
H37A H 1.2106 0.7975 0.6534
C52A C 1.4390(5) 0.1836(4) 0.5519(3)
H38A H 1.3884 0.1305 0.5383
H39A H 1.4976 0.1760 0.5283
H40A H 1.4551 0.1955 0.5997
C53A C 0.9953(7) 0.6632(5) 0.9629(3)
C56A C 1.1007(7) 0.8537(6) 0.6929(5)
H43A H 1.1338 0.9122 0.6970
C57A C 0.5390(6) 0.4013(6) 0.7006(4)
H44A H 0.5459 0.3428 0.6859
C59A C 0.5008(6) 0.4422(7) 0.6631(4)
H46A H 0.4772 0.4161 0.6185
C65A C 0.5518(7) 0.7629(6) 0.8976(5)
C66A C 0.8070(6) 0.7631(5) 0.7714(4)
H52A H 0.8191 0.8220 0.7954
C67A C 0.8749(9) 0.7509(6) 0.9583(4)
H53A H 0.8227 0.7772 0.9491
C69A C 1.0332(10) 0.7456(6) 1.0120(3)
H55A H 1.0928 0.7650 1.0389
C70A C 1.0087(6) 0.8360(6) 0.7135(4)
H56A H 0.9760 0.8810 0.7325
C71A C 1.1115(5) 0.0755(4) 0.5933(4)
H57A H 1.1360 0.0921 0.6399
H58A H 1.0523 0.0299 0.5875
H59A H 1.1614 0.0538 0.5660
C72A C 0.9478(10) 0.7899(7) 1.0064(4)
H60A H 0.9454 0.8437 1.0359
N15A N 0.8753(3) 0.5786(3) 0.5635(2)
C78A C 0.5276(10) 0.8167(7) 0.9564(7)
S5A S 1.3600(7) 0.5307(6) 1.0260(5)
C79A C 1.4094(10) 0.4400(12) 1.0266(11)
H66A H 1.4688 0.4428 1.0509
C80A C 1.3583(12) 0.3688(12) 0.9912(9)
H67A H 1.3789 0.3154 0.9883
C81A C 1.2619(8) 0.3710(8) 0.9531(6)
H68A H 1.2168 0.3258 0.9239
C82A C 1.2617(13) 0.4622(11) 0.9752(9)
S6A S 0.4615(3) 0.7891(3) 1.0148(2)
C83A C 0.553(3) 0.869(2) 1.0599(15)
C84A C 0.5806(15) 0.9272(14) 1.0282(11)
H70A H 0.6282 0.9782 1.0471
C85A C 0.5346(11) 0.9114(10) 0.9589(8)
H71A H 0.5497 0.9482 0.9291
loop_
_geom_bond_atom_site_label_1
_geom_bond_atom_site_label_2
_geom_bond_site_symmetry_1
_geom_bond_site_symmetry_2
Ni1 N1 1_555 1_555
Fe1 N2 1_555 1_555
S1 C33 1_555 1_555
S2 C45 1_555 1_555
S3 C5 1_555 1_555
N1 C1 1_555 1_555
S4 C53 1_555 1_555
N2 N10 1_555 1_555
N3 N5 1_555 1_555
N4 H1 1_555 1_555
N5 Fe1 1_555 1_555
C1 Fe1 1_555 1_555
N6 Ni1 1_555 1_555
N7 N9 1_555 1_555
C2 Fe1 1_555 1_555
N8 H2 1_555 1_555
N9 Fe1 1_555 1_555
N10 C44 1_555 1_555
N11 Ni1 1_555 1_555
C3 Fe1 1_555 1_555
N12 Ni1 1_555 1_555
N13 Ni1 1_555 1_555
C4 C23 1_555 1_555
C5 C27 1_555 1_555
C6 H3 1_555 1_555
H4 C6 1_555 1_555
H5 C6 1_555 1_555
C7 N7 1_555 1_555
C8 N6 1_555 1_555
C9 N11 1_555 1_555
C10 H6 1_555 1_555
C11 H7 1_555 1_555
H8 C11 1_555 1_555
H9 C11 1_555 1_555
C12 N9 1_555 1_555
C13 H10 1_555 1_555
H11 C13 1_555 1_555
H12 C13 1_555 1_555
C14 N2 1_555 1_555
C15 B1 1_555 1_555
C16 C14 1_555 1_555
H13 C16 1_555 1_555
C17 C9 1_555 1_555
H14 C17 1_555 1_555
C18 N12 1_555 1_555
H15 C18 1_555 1_555
C19 H16 1_555 1_555
C20 N3 1_555 1_555
C21 N5 1_555 1_555
C22 N11 1_555 1_555
H17 C22 1_555 1_555
C23 H18 1_555 1_555
C24 C8 1_555 1_555
H19 C24 1_555 1_555
C25 C7 1_555 1_555
H20 C25 1_555 1_555
C26 C30 1_555 1_555
C27 C29 1_555 1_555
N14 C2 1_555 1_555
C28 H21 1_555 1_555
C29 N8 1_555 1_555
C30 H22 1_555 1_555
C31 H23 1_555 1_555
C32 N4 1_555 1_555
C33 C5 1_555 1_555
C34 N13 1_555 1_555
C35 B1 1_555 1_555
C36 C20 1_555 1_555
H24 C36 1_555 1_555
H25 C36 1_555 1_555
H26 C36 1_555 1_555
B1 C4 1_555 1_555
C37 C10 1_555 1_555
H27 C37 1_555 1_555
C38 N12 1_555 1_555
C39 C27 1_555 1_555
H28 C39 1_555 1_555
C40 C4 1_555 1_555
H29 C40 1_555 1_555
C41 C31 1_555 1_555
H30 C41 1_555 1_555
C42 C15 1_555 1_555
H31 C42 1_555 1_555
C43 C28 1_555 1_555
C44 C16 1_555 1_555
C45 C28 1_555 1_555
C46 C23 1_555 1_555
H32 C46 1_555 1_555
C47 C33 1_555 1_555
H33 C47 1_555 1_555
C48 H34 1_555 1_555
B2 N3 1_555 1_555
H35 B2 1_555 1_555
C49 C35 1_555 1_555
H36 C49 1_555 1_555
C50 S2 1_555 1_555
C51 C18 1_555 1_555
H37 C51 1_555 1_555
C52 C7 1_555 1_555
H38 C52 1_555 1_555
H39 C52 1_555 1_555
H40 C52 1_555 1_555
C53 C50 1_555 1_555
C54 C15 1_555 1_555
H41 C54 1_555 1_555
C55 C42 1_555 1_555
H42 C55 1_555 1_555
C56 C51 1_555 1_555
H43 C56 1_555 1_555
C57 S1 1_555 1_555
H44 C57 1_555 1_555
C58 C30 1_555 1_555
H45 C58 1_555 1_555
C59 C47 1_555 1_555
H46 C59 1_555 1_555
C60 C58 1_555 1_555
H47 C60 1_555 1_555
C61 C35 1_555 1_555
H48 C61 1_555 1_555
C62 C60 1_555 1_555
H49 C62 1_555 1_555
C63 C55 1_555 1_555
H50 C63 1_555 1_555
C64 C26 1_555 1_555
H51 C64 1_555 1_555
C65 S3 1_555 1_555
C66 C29 1_555 1_555
H52 C66 1_555 1_555
C67 S4 1_555 1_555
H53 C67 1_555 1_555
C68 C48 1_555 1_555
H54 C68 1_555 1_555
C69 C53 1_555 1_555
H55 C69 1_555 1_555
C70 C38 1_555 1_555
H56 C70 1_555 1_555
C71 C44 1_555 1_555
H57 C71 1_555 1_555
H58 C71 1_555 1_555
H59 C71 1_555 1_555
C72 C67 1_555 1_555
H60 C72 1_555 1_555
C73 C54 1_555 1_555
H61 C73 1_555 1_555
N15 Ni1 1_555 1_555
C74 C48 1_555 1_555
H62 C74 1_555 1_555
C78 C65 1_555 1_555
S5 C79 1_555 1_555
C79 H66 1_555 1_555
C80 C79 1_555 1_555
H67 C80 1_555 1_555
C81 C80 1_555 1_555
H68 C81 1_555 1_555
C82 C45 1_555 1_555
S6 C78 1_555 1_555
C83 S6 1_555 1_555
C84 C83 1_555 1_555
H70 C84 1_555 1_555
C85 C78 1_555 1_555
H71 C85 1_555 1_555
Ni1A N1A 1_555 1_555
Fe1A N2A 1_555 1_555
S1A C33A 1_555 1_555
S2A C45A 1_555 1_555
S3A C5A 1_555 1_555
N1A C1A 1_555 1_555
S4A C53A 1_555 1_555
N2A N10A 1_555 1_555
N3A N5A 1_555 1_555
N4A H1A 1_555 1_555
N5A Fe1A 1_555 1_555
C1A Fe1A 1_555 1_555
N6A Ni1A 1_555 1_555
N7A N9A 1_555 1_555
C2A Fe1A 1_555 1_555
N8A H2A 1_555 1_555
N9A Fe1A 1_555 1_555
N10A C44A 1_555 1_555
N11A Ni1A 1_555 1_555
C3A N15 1_555 1_555
N12A Ni1A 1_555 1_555
N13A Ni1A 1_555 1_555
C5A C27A 1_555 1_555
C6A H3A 1_555 1_555
H4A C6A 1_555 1_555
H5A C6A 1_555 1_555
C7A N7A 1_555 1_555
C8A N6A 1_555 1_555
C9A N11A 1_555 1_555
C10A H6A 1_555 1_555
C11A H7A 1_555 1_555
H8A C11A 1_555 1_555
H9A C11A 1_555 1_555
C12A N9A 1_555 1_555
C13A H10A 1_555 1_555
H11A C13A 1_555 1_555
H12A C13A 1_555 1_555
C14A N2A 1_555 1_555
C16A C14A 1_555 1_555
H13A C16A 1_555 1_555
C17A C9A 1_555 1_555
H14A C17A 1_555 1_555
C18A N12A 1_555 1_555
H15A C18A 1_555 1_555
C19A H16A 1_555 1_555
C20A N3A 1_555 1_555
C21A N5A 1_555 1_555
C22A N11A 1_555 1_555
H17A C22A 1_555 1_555
C24A C8A 1_555 1_555
H19A C24A 1_555 1_555
C25A C7A 1_555 1_555
H20A C25A 1_555 1_555
C27A C29A 1_555 1_555
N14A C2A 1_555 1_555
C28A H21A 1_555 1_555
C29A N8A 1_555 1_555
C32A N4A 1_555 1_555
C33A C5A 1_555 1_555
C34A N13A 1_555 1_555
C36A C20A 1_555 1_555
H24A C36A 1_555 1_555
H25A C36A 1_555 1_555
H26A C36A 1_555 1_555
C37A C10A 1_555 1_555
H27A C37A 1_555 1_555
C38A N12A 1_555 1_555
C39A C27A 1_555 1_555
H28A C39A 1_555 1_555
C43A C28A 1_555 1_555
C44A C16A 1_555 1_555
C45A C28A 1_555 1_555
C47A C33A 1_555 1_555
H33A C47A 1_555 1_555
B2A N3A 1_555 1_555
H35A B2A 1_555 1_555
C50A S2A 1_555 1_555
C51A C18A 1_555 1_555
H37A C51A 1_555 1_555
C52A C7A 1_555 1_555
H38A C52A 1_555 1_555
H39A C52A 1_555 1_555
H40A C52A 1_555 1_555
C53A C50A 1_555 1_555
C56A C51A 1_555 1_555
H43A C56A 1_555 1_555
C57A S1A 1_555 1_555
H44A C57A 1_555 1_555
C59A C47A 1_555 1_555
H46A C59A 1_555 1_555
C65A S3A 1_555 1_555
C66A C29A 1_555 1_555
H52A C66A 1_555 1_555
C67A S4A 1_555 1_555
H53A C67A 1_555 1_555
C69A C53A 1_555 1_555
H55A C69A 1_555 1_555
C70A C38A 1_555 1_555
H56A C70A 1_555 1_555
C71A C44A 1_555 1_555
H57A C71A 1_555 1_555
H58A C71A 1_555 1_555
H59A C71A 1_555 1_555
C72A C67A 1_555 1_555
H60A C72A 1_555 1_555
N15A C3 1_555 1_555
C78A C65A 1_555 1_555
S5A C79A 1_555 1_555
C79A H66A 1_555 1_555
C80A C79A 1_555 1_555
H67A C80A 1_555 1_555
C81A C80A 1_555 1_555
H68A C81A 1_555 1_555
C82A C45A 1_555 1_555
S6A C78A 1_555 1_555
C83A S6A 1_555 1_555
C84A C83A 1_555 1_555
H70A C84A 1_555 1_555
C85A C78A 1_555 1_555
H71A C85A 1_555 1_555
N4 N6 1_555 1_555
N7 B2 1_555 1_555
N8 N13 1_555 1_555
N10 B2 1_555 1_555
C6 C12 1_555 1_555
C8 C9 1_555 1_555
C10 C22 1_555 1_555
C11 C14 1_555 1_555
C12 C25 1_555 1_555
C13 C21 1_555 1_555
C17 C37 1_555 1_555
C19 C20 1_555 1_555
C19 C21 1_555 1_555
C24 C32 1_555 1_555
C26 B1 1_555 1_555
C31 C46 1_555 1_555
C32 C43 1_555 1_555
C34 C38 1_555 1_555
C34 C66 1_555 1_555
C39 C65 1_555 1_555
C40 C41 1_555 1_555
C43 C50 1_555 1_555
C49 C68 1_555 1_555
C56 C70 1_555 1_555
C57 C59 1_555 1_555
C61 C74 1_555 1_555
C62 C64 1_555 1_555
C63 C73 1_555 1_555
C69 C72 1_555 1_555
S5 C82 1_555 1_555
C81 C82 1_555 1_555
C84 C85 1_555 1_555
Ni1A N15A 1_555 1_555
Fe1A C3A 1_555 1_555
N4A N6A 1_555 1_555
N7A B2A 1_555 1_555
N8A N13A 1_555 1_555
N10A B2A 1_555 1_555
C6A C12A 1_555 1_555
C8A C9A 1_555 1_555
C10A C22A 1_555 1_555
C11A C14A 1_555 1_555
C12A C25A 1_555 1_555
C13A C21A 1_555 1_555
C17A C37A 1_555 1_555
C19A C20A 1_555 1_555
C19A C21A 1_555 1_555
C24A C32A 1_555 1_555
C32A C43A 1_555 1_555
C34A C38A 1_555 1_555
C34A C66A 1_555 1_555
C39A C65A 1_555 1_555
C43A C50A 1_555 1_555
C56A C70A 1_555 1_555
C57A C59A 1_555 1_555
C69A C72A 1_555 1_555
S5A C82A 1_555 1_555
C81A C82A 1_555 1_555
C84A C85A 1_555 1_555

#END
