
#######################################################################
#
#                 Cambridge Crystallographic Data Centre
#                                CCDC 
#
#######################################################################
#
# If this CIF has been generated from an entry in the Cambridge 
# Structural Database, then it will include bibliographic, chemical, 
# crystal, experimental, refinement or atomic coordinate data resulting 
# from the CCDC's data processing and validation procedures.
#
#######################################################################

data_BEHKOP
_chemical_formula_moiety         'C84 H140 O8 P8 Pt4,2(C1 H1 Cl3)'
_chemical_name_systematic        
'bis((\m~2~-Anthracene-1,8-diyl)-(\m~2~-fumarato)-tetrakis(triethylphosphine)-di-platinum(ii)) chloroform solvate'
_symmetry_cell_setting           monoclinic
_symmetry_space_group_name_H-M   'P 21/c'
_symmetry_Int_Tables_number      14
_space_group_name_Hall           '-P 2ybc'
loop_
_symmetry_equiv_pos_site_id
_symmetry_equiv_pos_as_xyz
1 x,y,z
2 x,1/2-y,1/2+z
3 -x,-y,-z
4 -x,1/2+y,1/2-z
_cell_length_a                   16.5367(3)
_cell_length_b                   14.5788(3)
_cell_length_c                   22.3754(3)
_cell_angle_alpha                90
_cell_angle_beta                 110.6443(10)
_cell_angle_gamma                90
_cell_volume                     5047.99
_exptl_crystal_colour            yellow
_exptl_crystal_description       plate
_cell_formula_units_Z            2
_exptl_crystal_recrystallization_method chloroform/dichloromethane/acetone
loop_
_atom_site_label
_atom_site_type_symbol
_atom_site_fract_x
_atom_site_fract_y
_atom_site_fract_z
Pt1 Pt 0.70212(4) -0.00730(5) 0.76379(3)
Pt2 Pt 0.18820(4) 0.07002(5) 0.43631(3)
P1 P 0.6830(3) -0.1598(3) 0.7347(3)
P2 P 0.7203(3) 0.1392(3) 0.8055(2)
P3 P 0.2133(3) -0.0842(3) 0.4321(2)
P4 P 0.1647(3) 0.2226(4) 0.4513(3)
O1 O 0.5734(8) 0.0205(9) 0.7034(6)
O2 O 0.5148(10) -0.0010(12) 0.7795(7)
O3 O 0.3134(9) 0.0812(10) 0.5091(6)
O4 O 0.2570(9) 0.0722(17) 0.5872(7)
C1 C 0.5106(12) 0.0176(12) 0.7239(10)
C2 C 0.4225(13) 0.0359(14) 0.6747(9)
H1 H 0.3741 0.0315 0.6881
C3 C 0.4078(13) 0.0574(14) 0.6147(9)
H2 H 0.4551 0.0644 0.6004
C4 C 0.3172(14) 0.0710(17) 0.5685(9)
C5 C 0.0700(11) 0.0564(11) 0.3674(8)
C6 C -0.0005(12) 0.0466(15) 0.3872(10)
H3 H 0.0100 0.0463 0.4318
C7 C -0.0859(13) 0.0373(15) 0.3453(10)
H4 H -0.1317 0.0315 0.3613
C8 C -0.1025(13) 0.0366(15) 0.2813(11)
H5 H -0.1605 0.0340 0.2524
C9 C -0.0334(13) 0.0399(12) 0.2574(9)
C10 C -0.0501(12) 0.0385(13) 0.1917(9)
H6 H -0.1086 0.0380 0.1634
C11 C 0.0158(11) 0.0379(12) 0.1655(8)
C12 C -0.0007(13) 0.0416(13) 0.0994(9)
H7 H -0.0589 0.0415 0.0707
C13 C 0.0624(13) 0.0450(13) 0.0761(9)
H8 H 0.0492 0.0513 0.0313
C14 C 0.1489(14) 0.0395(13) 0.1172(9)
H9 H 0.1932 0.0430 0.0994
C15 C 0.8275(11) -0.0293(12) 0.8174(8)
C16 C 0.1041(12) 0.0335(13) 0.2087(10)
C17 C 0.1208(11) 0.0408(12) 0.2748(8)
H10 H 0.1793 0.0428 0.3030
C18 C 0.0541(12) 0.0454(12) 0.3012(8)
C19 C 0.7742(14) -0.2337(16) 0.7767(13)
H11 H 0.8222 -0.2177 0.7619
H12 H 0.7932 -0.2181 0.8227
C20 C 0.762(2) -0.3356(18) 0.7708(16)
H13 H 0.7199 -0.3545 0.7902
H14 H 0.8172 -0.3662 0.7926
H15 H 0.7405 -0.3528 0.7255
C21 C 0.5958(14) -0.2102(14) 0.7534(11)
H16 H 0.5414 -0.1794 0.7275
H17 H 0.5909 -0.2755 0.7406
C22 C 0.6048(16) -0.2045(17) 0.8241(11)
H18 H 0.6597 -0.2324 0.8506
H19 H 0.5568 -0.2375 0.8304
H20 H 0.6037 -0.1401 0.8363
C23 C 0.6628(17) -0.1868(16) 0.6518(11)
H21 H 0.7109 -0.1623 0.6399
H22 H 0.6625 -0.2543 0.6469
C24 C 0.578(2) -0.149(2) 0.6057(13)
H23 H 0.5296 -0.1771 0.6143
H24 H 0.5736 -0.1621 0.5617
H25 H 0.5766 -0.0821 0.6114
C25 C 0.7237(15) 0.1432(14) 0.8882(11)
H26 H 0.7758 0.1099 0.9154
H27 H 0.7302 0.2080 0.9024
C26 C 0.647(2) 0.104(2) 0.8995(13)
H28 H 0.5991 0.1473 0.8844
H29 H 0.6618 0.0932 0.9453
H30 H 0.6311 0.0461 0.8763
C27 C 0.8243(14) 0.1967(15) 0.8161(11)
H31 H 0.8274 0.2548 0.8397
H32 H 0.8723 0.1570 0.8422
C28 C 0.835(2) 0.2171(17) 0.7531(13)
H33 H 0.8403 0.1594 0.7321
H34 H 0.8880 0.2535 0.7608
H35 H 0.7854 0.2517 0.7255
C29 C 0.6354(15) 0.2192(16) 0.7587(12)
H36 H 0.6358 0.2218 0.7147
H37 H 0.5786 0.1944 0.7564
C30 C 0.6441(16) 0.3173(16) 0.7854(14)
H38 H 0.7047 0.3365 0.7990
H39 H 0.6248 0.3189 0.8220
H40 H 0.6085 0.3589 0.7522
C31 C 0.2487(16) -0.1336(15) 0.5124(10)
H41 H 0.2653 -0.1985 0.5105
H42 H 0.3001 -0.1001 0.5404
C32 C 0.1762(18) -0.1282(19) 0.5407(11)
H43 H 0.1550 -0.0650 0.5378
H44 H 0.1989 -0.1473 0.5855
H45 H 0.1287 -0.1688 0.5166
C33 C 0.1201(15) -0.1525(15) 0.3871(12)
H46 H 0.0712 -0.1327 0.3998
H47 H 0.1050 -0.1365 0.3415
C34 C 0.1251(19) -0.2564(15) 0.3921(15)
H48 H 0.1573 -0.2801 0.3661
H49 H 0.0666 -0.2821 0.3767
H50 H 0.1547 -0.2742 0.4368
C35 C 0.2985(14) -0.1162(15) 0.4007(11)
H51 H 0.2941 -0.1827 0.3914
H52 H 0.2877 -0.0836 0.3598
C36 C 0.3890(16) -0.095(2) 0.4442(13)
H53 H 0.3948 -0.0294 0.4530
H54 H 0.4298 -0.1141 0.4236
H55 H 0.4015 -0.1291 0.4843
C37 C 0.1449(17) 0.2445(19) 0.5265(13)
H56 H 0.1980 0.2285 0.5628
H57 H 0.1347 0.3110 0.5294
C38 C 0.0704(18) 0.193(2) 0.5340(13)
H58 H 0.0194 0.2003 0.4952
H59 H 0.0581 0.2176 0.5706
H60 H 0.0852 0.1279 0.5410
C39 C 0.0767(15) 0.2835(16) 0.3923(13)
H61 H 0.0219 0.2502 0.3854
H62 H 0.0713 0.3453 0.4088
C40 C 0.090(3) 0.2932(17) 0.3283(14)
H63 H 0.1280 0.2437 0.3239
H64 H 0.1173 0.3526 0.3268
H65 H 0.0344 0.2896 0.2933
C41 C 0.2617(16) 0.2916(16) 0.4667(14)
H66 H 0.3079 0.2658 0.5043
H67 H 0.2809 0.2856 0.4297
C43 C 0.252(2) 0.395(2) 0.4789(14)
H69 H 0.1974 0.4183 0.4483
H70 H 0.3003 0.4294 0.4737
H71 H 0.2526 0.4040 0.5225
C15B C 0.1725(11) 0.0293(12) 0.1826(8)
Pt1B Pt 0.29788(4) 0.00730(5) 0.23621(3)
P1B P 0.3170(3) 0.1598(3) 0.2653(3)
C19B C 0.2258(14) 0.2337(16) 0.2233(13)
H11B H 0.1778 0.2177 0.2381
H12B H 0.2068 0.2181 0.1773
C20B C 0.238(2) 0.3356(18) 0.2292(16)
H13B H 0.2801 0.3545 0.2098
H14B H 0.1828 0.3662 0.2074
H15B H 0.2595 0.3528 0.2745
C21B C 0.4042(14) 0.2102(14) 0.2466(11)
H16B H 0.4586 0.1794 0.2725
H17B H 0.4091 0.2755 0.2594
C22B C 0.3952(16) 0.2045(17) 0.1759(11)
H18B H 0.3403 0.2324 0.1494
H19B H 0.4432 0.2375 0.1696
H20B H 0.3963 0.1401 0.1637
C23B C 0.3372(17) 0.1868(16) 0.3482(11)
H21B H 0.2891 0.1623 0.3601
H22B H 0.3375 0.2543 0.3531
C24B C 0.422(2) 0.149(2) 0.3943(13)
H23B H 0.4704 0.1771 0.3857
H24B H 0.4264 0.1621 0.4383
H25B H 0.4234 0.0821 0.3886
P2B P 0.2797(3) -0.1392(3) 0.1945(2)
C25B C 0.2763(15) -0.1432(14) 0.1118(11)
H26B H 0.2242 -0.1099 0.0846
H27B H 0.2698 -0.2080 0.0976
C26B C 0.353(2) -0.104(2) 0.1005(13)
H28B H 0.4009 -0.1473 0.1156
H29B H 0.3382 -0.0932 0.0547
H30B H 0.3689 -0.0461 0.1237
C27B C 0.1757(14) -0.1967(15) 0.1839(11)
H31B H 0.1726 -0.2548 0.1603
H32B H 0.1277 -0.1570 0.1578
C28B C 0.165(2) -0.2171(17) 0.2469(13)
H33B H 0.1597 -0.1594 0.2679
H34B H 0.1120 -0.2535 0.2392
H35B H 0.2146 -0.2517 0.2745
C29B C 0.3646(15) -0.2192(16) 0.2413(12)
H36B H 0.3642 -0.2218 0.2853
H37B H 0.4214 -0.1944 0.2436
C30B C 0.3559(16) -0.3173(16) 0.2146(14)
H38B H 0.2953 -0.3365 0.2010
H39B H 0.3752 -0.3189 0.1780
H40B H 0.3915 -0.3589 0.2478
O1B O 0.4266(8) -0.0205(9) 0.2966(6)
C1B C 0.4894(12) -0.0176(12) 0.2761(10)
O2B O 0.4852(10) 0.0010(12) 0.2205(7)
C2B C 0.5775(13) -0.0359(14) 0.3253(9)
H1B H 0.6259 -0.0315 0.3119
C3B C 0.5922(13) -0.0574(14) 0.3853(9)
H2B H 0.5449 -0.0644 0.3996
C4B C 0.6828(14) -0.0710(17) 0.4315(9)
O3B O 0.6866(9) -0.0812(10) 0.4909(6)
Pt2B Pt 0.81180(4) -0.07002(5) 0.56369(3)
P3B P 0.7867(3) 0.0842(3) 0.5679(2)
C31B C 0.7513(16) 0.1336(15) 0.4876(10)
H41B H 0.7347 0.1985 0.4895
H42B H 0.6999 0.1001 0.4596
C32B C 0.8238(18) 0.1282(19) 0.4593(11)
H43B H 0.8450 0.0650 0.4622
H44B H 0.8011 0.1473 0.4145
H45B H 0.8713 0.1688 0.4834
C33B C 0.8799(15) 0.1525(15) 0.6129(12)
H46B H 0.9288 0.1327 0.6002
H47B H 0.8950 0.1365 0.6585
C34B C 0.8749(19) 0.2564(15) 0.6079(15)
H48B H 0.8427 0.2801 0.6339
H49B H 0.9334 0.2821 0.6233
H50B H 0.8453 0.2742 0.5632
C35B C 0.7015(14) 0.1162(15) 0.5993(11)
H51B H 0.7059 0.1827 0.6086
H52B H 0.7123 0.0836 0.6402
C36B C 0.6110(16) 0.095(2) 0.5558(13)
H53B H 0.6052 0.0294 0.5470
H54B H 0.5702 0.1141 0.5764
H55B H 0.5985 0.1291 0.5157
P4B P 0.8353(3) -0.2226(4) 0.5487(3)
C37B C 0.8551(17) -0.2445(19) 0.4735(13)
H56B H 0.8020 -0.2285 0.4372
H57B H 0.8653 -0.3110 0.4706
C38B C 0.9296(18) -0.193(2) 0.4660(13)
H58B H 0.9806 -0.2003 0.5048
H59B H 0.9419 -0.2176 0.4294
H60B H 0.9148 -0.1279 0.4590
C39B C 0.9233(15) -0.2835(16) 0.6077(13)
H61B H 0.9781 -0.2502 0.6146
H62B H 0.9287 -0.3453 0.5912
C40B C 0.910(3) -0.2932(17) 0.6717(14)
H63B H 0.8720 -0.2437 0.6761
H64B H 0.8827 -0.3526 0.6732
H65B H 0.9656 -0.2896 0.7067
C41B C 0.7383(16) -0.2916(16) 0.5333(14)
H66B H 0.6921 -0.2658 0.4957
H67B H 0.7191 -0.2856 0.5703
C43B C 0.748(2) -0.395(2) 0.5211(14)
H69B H 0.8026 -0.4183 0.5517
H70B H 0.6997 -0.4294 0.5263
H71B H 0.7474 -0.4040 0.4775
C5B C 0.9300(11) -0.0564(11) 0.6326(8)
C6B C 1.0005(12) -0.0466(15) 0.6128(10)
H3B H 0.9900 -0.0463 0.5682
C7B C 1.0859(13) -0.0373(15) 0.6547(10)
H4B H 1.1317 -0.0315 0.6387
C8B C 1.1025(13) -0.0366(15) 0.7187(11)
H5B H 1.1605 -0.0340 0.7476
C9B C 1.0334(13) -0.0399(12) 0.7426(9)
C10B C 1.0501(12) -0.0385(13) 0.8083(9)
H6B H 1.1086 -0.0380 0.8366
C11B C 0.9842(11) -0.0379(12) 0.8345(8)
C12B C 1.0007(13) -0.0416(13) 0.9006(9)
H7B H 1.0589 -0.0415 0.9293
C13B C 0.9376(13) -0.0450(13) 0.9239(9)
H8B H 0.9508 -0.0513 0.9687
C14B C 0.8511(14) -0.0395(13) 0.8828(9)
H9B H 0.8068 -0.0430 0.9006
C16B C 0.8959(12) -0.0335(13) 0.7913(10)
C17B C 0.8792(11) -0.0408(12) 0.7252(8)
H10B H 0.8207 -0.0428 0.6970
C18B C 0.9459(12) -0.0454(12) 0.6988(8)
O4B O 0.7430(9) -0.0722(17) 0.4128(7)
C42 C 0.427(2) 0.538(3) 0.3756(13)
H68 H 0.4451 0.5348 0.3375
Cl1 Cl 0.3176(7) 0.5733(12) 0.3509(7)
Cl2 Cl 0.4366(10) 0.4314(13) 0.4097(8)
Cl3 Cl 0.4878(12) 0.6178(16) 0.4273(8)
loop_
_geom_bond_atom_site_label_1
_geom_bond_atom_site_label_2
_geom_bond_site_symmetry_1
_geom_bond_site_symmetry_2
Pt1 P1 1_555 1_555
Pt2 P3 1_555 1_555
P1 C19 1_555 1_555
P2 Pt1 1_555 1_555
P3 C31 1_555 1_555
P4 Pt2 1_555 1_555
O1 Pt1 1_555 1_555
O2 C1 1_555 1_555
O3 Pt2 1_555 1_555
O4 C4 1_555 1_555
C1 O1 1_555 1_555
C2 C1 1_555 1_555
H1 C2 1_555 1_555
C3 C2 1_555 1_555
H2 C3 1_555 1_555
C4 O3 1_555 1_555
C5 Pt2 1_555 1_555
C6 C5 1_555 1_555
H3 C6 1_555 1_555
C7 C6 1_555 1_555
H4 C7 1_555 1_555
C8 C7 1_555 1_555
H5 C8 1_555 1_555
C9 C8 1_555 1_555
C10 C9 1_555 1_555
H6 C10 1_555 1_555
C11 C10 1_555 1_555
C12 C11 1_555 1_555
H7 C12 1_555 1_555
C13 C12 1_555 1_555
H8 C13 1_555 1_555
C14 C13 1_555 1_555
H9 C14 1_555 1_555
C15 Pt1 1_555 1_555
C16 C11 1_555 1_555
C17 C16 1_555 1_555
H10 C17 1_555 1_555
C18 C5 1_555 1_555
C19 H11 1_555 1_555
H12 C19 1_555 1_555
C20 C19 1_555 1_555
H13 C20 1_555 1_555
H14 C20 1_555 1_555
H15 C20 1_555 1_555
C21 P1 1_555 1_555
H16 C21 1_555 1_555
H17 C21 1_555 1_555
C22 C21 1_555 1_555
H18 C22 1_555 1_555
H19 C22 1_555 1_555
H20 C22 1_555 1_555
C23 P1 1_555 1_555
H21 C23 1_555 1_555
H22 C23 1_555 1_555
C24 C23 1_555 1_555
H23 C24 1_555 1_555
H24 C24 1_555 1_555
H25 C24 1_555 1_555
C25 P2 1_555 1_555
H26 C25 1_555 1_555
H27 C25 1_555 1_555
C26 C25 1_555 1_555
H28 C26 1_555 1_555
H29 C26 1_555 1_555
H30 C26 1_555 1_555
C27 P2 1_555 1_555
H31 C27 1_555 1_555
H32 C27 1_555 1_555
C28 C27 1_555 1_555
H33 C28 1_555 1_555
H34 C28 1_555 1_555
H35 C28 1_555 1_555
C29 P2 1_555 1_555
H36 C29 1_555 1_555
H37 C29 1_555 1_555
C30 C29 1_555 1_555
H38 C30 1_555 1_555
H39 C30 1_555 1_555
H40 C30 1_555 1_555
C31 H41 1_555 1_555
H42 C31 1_555 1_555
C32 C31 1_555 1_555
H43 C32 1_555 1_555
H44 C32 1_555 1_555
H45 C32 1_555 1_555
C33 P3 1_555 1_555
H46 C33 1_555 1_555
H47 C33 1_555 1_555
C34 C33 1_555 1_555
H48 C34 1_555 1_555
H49 C34 1_555 1_555
H50 C34 1_555 1_555
C35 P3 1_555 1_555
H51 C35 1_555 1_555
H52 C35 1_555 1_555
C36 C35 1_555 1_555
H53 C36 1_555 1_555
H54 C36 1_555 1_555
H55 C36 1_555 1_555
C37 P4 1_555 1_555
H56 C37 1_555 1_555
H57 C37 1_555 1_555
C38 C37 1_555 1_555
H58 C38 1_555 1_555
H59 C38 1_555 1_555
H60 C38 1_555 1_555
C39 P4 1_555 1_555
H61 C39 1_555 1_555
H62 C39 1_555 1_555
C40 C39 1_555 1_555
H63 C40 1_555 1_555
H64 C40 1_555 1_555
H65 C40 1_555 1_555
C41 P4 1_555 1_555
H66 C41 1_555 1_555
H67 C41 1_555 1_555
C42 H68 1_555 1_555
C43 C41 1_555 1_555
H69 C43 1_555 1_555
H70 C43 1_555 1_555
H71 C43 1_555 1_555
Cl1 C42 1_555 1_555
Cl2 C42 1_555 1_555
Cl3 C42 1_555 1_555
C15B C14 1_555 1_555
Pt1B C15B 1_555 1_555
P1B Pt1B 1_555 1_555
C19B P1B 1_555 1_555
H11B C19B 1_555 1_555
H12B C19B 1_555 1_555
C20B C19B 1_555 1_555
H13B C20B 1_555 1_555
H14B C20B 1_555 1_555
H15B C20B 1_555 1_555
C21B P1B 1_555 1_555
H16B C21B 1_555 1_555
H17B C21B 1_555 1_555
C22B C21B 1_555 1_555
H18B C22B 1_555 1_555
H19B C22B 1_555 1_555
H20B C22B 1_555 1_555
C23B P1B 1_555 1_555
H21B C23B 1_555 1_555
H22B C23B 1_555 1_555
C24B C23B 1_555 1_555
H23B C24B 1_555 1_555
H24B C24B 1_555 1_555
H25B C24B 1_555 1_555
P2B Pt1B 1_555 1_555
C25B P2B 1_555 1_555
H26B C25B 1_555 1_555
H27B C25B 1_555 1_555
C26B C25B 1_555 1_555
H28B C26B 1_555 1_555
H29B C26B 1_555 1_555
H30B C26B 1_555 1_555
C27B P2B 1_555 1_555
H31B C27B 1_555 1_555
H32B C27B 1_555 1_555
C28B C27B 1_555 1_555
H33B C28B 1_555 1_555
H34B C28B 1_555 1_555
H35B C28B 1_555 1_555
C29B P2B 1_555 1_555
H36B C29B 1_555 1_555
H37B C29B 1_555 1_555
C30B C29B 1_555 1_555
H38B C30B 1_555 1_555
H39B C30B 1_555 1_555
H40B C30B 1_555 1_555
O1B Pt1B 1_555 1_555
C1B O1B 1_555 1_555
O2B C1B 1_555 1_555
C2B C1B 1_555 1_555
H1B C2B 1_555 1_555
C3B C2B 1_555 1_555
H2B C3B 1_555 1_555
C4B C3B 1_555 1_555
O3B C4B 1_555 1_555
Pt2B O3B 1_555 1_555
P3B Pt2B 1_555 1_555
C31B P3B 1_555 1_555
H41B C31B 1_555 1_555
H42B C31B 1_555 1_555
C32B C31B 1_555 1_555
H43B C32B 1_555 1_555
H44B C32B 1_555 1_555
H45B C32B 1_555 1_555
C33B P3B 1_555 1_555
H46B C33B 1_555 1_555
H47B C33B 1_555 1_555
C34B C33B 1_555 1_555
H48B C34B 1_555 1_555
H49B C34B 1_555 1_555
H50B C34B 1_555 1_555
C35B P3B 1_555 1_555
H51B C35B 1_555 1_555
H52B C35B 1_555 1_555
C36B C35B 1_555 1_555
H53B C36B 1_555 1_555
H54B C36B 1_555 1_555
H55B C36B 1_555 1_555
P4B Pt2B 1_555 1_555
C37B P4B 1_555 1_555
H56B C37B 1_555 1_555
H57B C37B 1_555 1_555
C38B C37B 1_555 1_555
H58B C38B 1_555 1_555
H59B C38B 1_555 1_555
H60B C38B 1_555 1_555
C39B P4B 1_555 1_555
H61B C39B 1_555 1_555
H62B C39B 1_555 1_555
C40B C39B 1_555 1_555
H63B C40B 1_555 1_555
H64B C40B 1_555 1_555
H65B C40B 1_555 1_555
C41B P4B 1_555 1_555
H66B C41B 1_555 1_555
H67B C41B 1_555 1_555
C43B C41B 1_555 1_555
H69B C43B 1_555 1_555
H70B C43B 1_555 1_555
H71B C43B 1_555 1_555
C5B Pt2B 1_555 1_555
C6B C5B 1_555 1_555
H3B C6B 1_555 1_555
C7B C6B 1_555 1_555
H4B C7B 1_555 1_555
C8B C7B 1_555 1_555
H5B C8B 1_555 1_555
C9B C8B 1_555 1_555
C10B C9B 1_555 1_555
H6B C10B 1_555 1_555
C11B C10B 1_555 1_555
C12B C11B 1_555 1_555
H7B C12B 1_555 1_555
C13B C12B 1_555 1_555
H8B C13B 1_555 1_555
C14B C15 1_555 1_555
H9B C14B 1_555 1_555
C16B C15 1_555 1_555
C17B C16B 1_555 1_555
H10B C17B 1_555 1_555
C18B C5B 1_555 1_555
O4B C4B 1_555 1_555
C3 C4 1_555 1_555
C9 C18 1_555 1_555
C16 C15B 1_555 1_555
C17 C18 1_555 1_555
C9B C18B 1_555 1_555
C11B C16B 1_555 1_555
C13B C14B 1_555 1_555
C17B C18B 1_555 1_555

#END
