
#######################################################################
#
#                 Cambridge Crystallographic Data Centre
#                                CCDC 
#
#######################################################################
#
# If this CIF has been generated from an entry in the Cambridge 
# Structural Database, then it will include bibliographic, chemical, 
# crystal, experimental, refinement or atomic coordinate data resulting 
# from the CCDC's data processing and validation procedures.
#
#######################################################################

data_BUVYEY
_chemical_formula_moiety         'C39 H33 N12 Pd3 3+,3(N1 O3 1-),2(H2 O1)'
_chemical_name_systematic        
"tris(imidazolato)-tris(2,2'-bipyridine)-tri-palladium tris(nitrate) dihydrate"
_symmetry_cell_setting           monoclinic
_symmetry_space_group_name_H-M   'C 2/c'
_symmetry_Int_Tables_number      15
_space_group_name_Hall           '-C 2yn'
loop_
_symmetry_equiv_pos_site_id
_symmetry_equiv_pos_as_xyz
1 x,y,z
2 -x,y,1/2-z
3 1/2+x,1/2+y,z
4 1/2-x,1/2+y,1/2-z
5 -x,-y,-z
6 x,-y,1/2+z
7 1/2-x,1/2-y,-z
8 1/2+x,1/2-y,1/2+z
_cell_length_a                   26.180(2)
_cell_length_b                   25.241(2)
_cell_length_c                   15.4614(12)
_cell_angle_alpha                90
_cell_angle_beta                 119.006(3)
_cell_angle_gamma                90
_cell_volume                     8935.5
_exptl_crystal_colour            white
_exptl_crystal_description       Block
_cell_formula_units_Z            8
loop_
_atom_site_label
_atom_site_type_symbol
_atom_site_fract_x
_atom_site_fract_y
_atom_site_fract_z
Pd1 Pd 0.34714(4) 0.04294(4) 0.39751(7)
Pd2 Pd 0.16189(4) -0.04681(4) 0.01867(7)
Pd3 Pd 0.19211(5) 0.18703(4) 0.06794(8)
N1 N 0.2781(4) -0.0015(4) 0.3058(7)
N2 N 0.2088(5) -0.0356(4) 0.1658(7)
N3 N 0.1417(5) 0.0305(4) 0.0109(7)
N4 N 0.1762(5) -0.1249(4) 0.0166(8)
C1 C 0.2645(6) -0.0218(5) 0.2166(9)
H1 H 0.2917 -0.0257 0.1929
N5 N 0.1122(5) -0.0618(5) -0.1269(8)
C2 C 0.2282(6) -0.0009(5) 0.3092(10)
H2 H 0.2234 0.0123 0.3624
C3 C 0.2144(6) -0.1533(6) 0.0935(11)
H3 H 0.2389 -0.1360 0.1543
C4 C 0.0899(6) 0.0514(5) 0.0017(10)
H4 H 0.0559 0.0325 -0.0096
C5 C 0.1068(6) -0.1142(7) -0.1520(11)
N6 N 0.1423(5) 0.2221(4) -0.0643(8)
N7 N 0.4016(5) -0.0167(4) 0.4724(8)
N8 N 0.2391(5) 0.1574(4) 0.2045(7)
N9 N 0.2969(4) 0.1056(4) 0.3288(7)
N10 N 0.4147(5) 0.0858(5) 0.4947(8)
N11 N 0.1533(5) 0.1165(4) 0.0295(7)
N12 N 0.2284(6) 0.2603(4) 0.0983(9)
C6 C 0.2812(6) 0.1222(5) 0.2378(10)
H5 H 0.2988 0.1097 0.2004
C7 C 0.1027(7) 0.1973(6) -0.1451(12)
H6 H 0.0980 0.1601 -0.1424
C8 C 0.4589(7) 0.0566(6) 0.5654(10)
C9 C 0.4516(6) -0.0001(6) 0.5528(10)
C10 C 0.2183(9) 0.3477(6) 0.0354(15)
H7 H 0.1980 0.3726 -0.0164
C11 C 0.1784(6) 0.0707(6) 0.0286(9)
H8 H 0.2171 0.0672 0.0392
C12 C 0.4189(7) 0.1377(7) 0.5014(11)
H9 H 0.3880 0.1581 0.4520
C13 C 0.2001(7) 0.2956(5) 0.0234(14)
C14 C 0.1524(8) 0.2745(6) -0.0660(13)
C15 C 0.1425(7) -0.1490(6) -0.0712(11)
C16 C 0.2188(7) -0.2069(6) 0.0865(11)
H10 H 0.2470 -0.2262 0.1419
C17 C 0.0677(8) 0.2240(7) -0.2339(13)
H11 H 0.0388 0.2066 -0.2914
C18 C 0.2654(10) 0.3636(7) 0.1216(18)
H12 H 0.2785 0.3993 0.1303
C19 C 0.4918(7) -0.0379(7) 0.6138(10)
H13 H 0.5271 -0.0270 0.6699
C20 C 0.4806(9) -0.0905(8) 0.5931(15)
H14 H 0.5082 -0.1161 0.6347
C21 C 0.4305(9) -0.1065(7) 0.5137(14)
H15 H 0.4222 -0.1430 0.4988
C22 C 0.5072(7) 0.0807(8) 0.6439(11)
H16 H 0.5377 0.0601 0.6934
C23 C 0.1849(6) -0.0225(5) 0.2236(10)
H17 H 0.1453 -0.0275 0.2077
C24 C 0.3917(7) -0.0679(6) 0.4550(11)
H18 H 0.3563 -0.0787 0.3993
C25 C 0.2942(8) 0.3263(7) 0.1971(13)
H19 H 0.3276 0.3359 0.2574
C26 C 0.0984(6) 0.1038(6) 0.0122(10)
H20 H 0.0702 0.1287 0.0082
C27 C 0.2726(8) 0.2750(6) 0.1813(12)
H21 H 0.2908 0.2498 0.2331
C28 C 0.0486(7) -0.0378(8) -0.2935(12)
H22 H 0.0295 -0.0107 -0.3411
C29 C 0.2612(6) 0.1325(5) 0.3550(10)
H23 H 0.2611 0.1290 0.4161
C30 C 0.2261(6) 0.1646(5) 0.2804(10)
H24 H 0.1976 0.1880 0.2799
C31 C 0.1191(8) 0.3039(6) -0.1526(15)
H25 H 0.1252 0.3408 -0.1551
C32 C 0.0709(7) -0.1262(8) -0.2501(13)
H26 H 0.0671 -0.1624 -0.2692
C33 C 0.0849(6) -0.0246(7) -0.1952(11)
H27 H 0.0903 0.0117 -0.1762
C34 C 0.0403(8) -0.0895(10) -0.3221(12)
H28 H 0.0147 -0.0996 -0.3885
C35 C 0.1832(8) -0.2333(6) 0.0005(14)
H29 H 0.1848 -0.2708 -0.0032
C36 C 0.1453(8) -0.2044(7) -0.0794(13)
H30 H 0.1207 -0.2215 -0.1404
C37 C 0.5094(8) 0.1349(8) 0.6473(13)
H31 H 0.5419 0.1521 0.6999
C38 C 0.0786(9) 0.2780(8) -0.2312(15)
H32 H 0.0555 0.2980 -0.2895
C39 C 0.4659(9) 0.1644(7) 0.5766(15)
H33 H 0.4674 0.2020 0.5785
O1 O 0.3075(6) 0.0316(5) 0.0630(9)
O2 O 0.3846(6) 0.0710(5) 0.1922(10)
N13 N 0.3580(5) 0.0289(5) 0.1423(9)
O3 O 0.3829(5) -0.0168(4) 0.1738(8)
O4 O 0.9502(6) 0.9336(6) 0.4449(9)
N14 N 0.9394(8) 0.8899(7) 0.3947(12)
O5 O 0.9291(8) 0.8998(7) 0.3052(11)
O6 O 0.9385(12) 0.8471(7) 0.4405(19)
O7 O 0.6600(6) 0.1665(6) 0.6995(10)
O8 O 0.6032(7) 0.2302(7) 0.5955(12)
O9 O 0.6153(8) 0.2254(8) 0.7496(12)
N15 N 0.6284(5) 0.2089(5) 0.6831(10)
O10 O 0.3331(8) 0.1188(7) 0.6035(11)
O11 O 0.5060(17) 0.2637(13) 0.484(3)
loop_
_geom_bond_atom_site_label_1
_geom_bond_atom_site_label_2
_geom_bond_site_symmetry_1
_geom_bond_site_symmetry_2
Pd1 N1 1_555 1_555
Pd2 N2 1_555 1_555
Pd3 N6 1_555 1_555
N1 C1 1_555 1_555
N2 C1 1_555 1_555
N3 Pd2 1_555 1_555
N4 Pd2 1_555 1_555
C1 H1 1_555 1_555
N5 Pd2 1_555 1_555
C2 N1 1_555 1_555
H2 C2 1_555 1_555
C3 N4 1_555 1_555
H3 C3 1_555 1_555
C4 N3 1_555 1_555
H4 C4 1_555 1_555
C5 N5 1_555 1_555
N6 C7 1_555 1_555
N7 Pd1 1_555 1_555
N8 Pd3 1_555 1_555
N9 Pd1 1_555 1_555
N10 Pd1 1_555 1_555
N11 Pd3 1_555 1_555
N12 Pd3 1_555 1_555
C6 N8 1_555 1_555
H5 C6 1_555 1_555
C7 H6 1_555 1_555
C8 N10 1_555 1_555
C9 N7 1_555 1_555
C10 H7 1_555 1_555
C11 N3 1_555 1_555
H8 C11 1_555 1_555
C12 N10 1_555 1_555
H9 C12 1_555 1_555
C13 N12 1_555 1_555
C14 N6 1_555 1_555
C15 N4 1_555 1_555
C16 C3 1_555 1_555
H10 C16 1_555 1_555
C17 C7 1_555 1_555
H11 C17 1_555 1_555
C18 C10 1_555 1_555
H12 C18 1_555 1_555
C19 C9 1_555 1_555
H13 C19 1_555 1_555
C20 C19 1_555 1_555
H14 C20 1_555 1_555
C21 C20 1_555 1_555
H15 C21 1_555 1_555
C22 C8 1_555 1_555
H16 C22 1_555 1_555
C23 N2 1_555 1_555
H17 C23 1_555 1_555
C24 N7 1_555 1_555
H18 C24 1_555 1_555
C25 C18 1_555 1_555
H19 C25 1_555 1_555
C26 C4 1_555 1_555
H20 C26 1_555 1_555
C27 N12 1_555 1_555
H21 C27 1_555 1_555
C28 H22 1_555 1_555
C29 N9 1_555 1_555
H23 C29 1_555 1_555
C30 N8 1_555 1_555
H24 C30 1_555 1_555
C31 C14 1_555 1_555
H25 C31 1_555 1_555
C32 C5 1_555 1_555
H26 C32 1_555 1_555
C33 N5 1_555 1_555
H27 C33 1_555 1_555
C34 C28 1_555 1_555
H28 C34 1_555 1_555
C35 C16 1_555 1_555
H29 C35 1_555 1_555
C36 C15 1_555 1_555
H30 C36 1_555 1_555
C37 C22 1_555 1_555
H31 C37 1_555 1_555
C38 C17 1_555 1_555
H32 C38 1_555 1_555
C39 C12 1_555 1_555
H33 C39 1_555 1_555
O1 N13 1_555 1_555
O2 N13 1_555 1_555
N13 O3 1_555 1_555
O4 N14 1_555 1_555
N14 O5 1_555 1_555
O6 N14 1_555 1_555
O7 N15 1_555 1_555
O8 N15 1_555 1_555
O9 N15 1_555 1_555
C2 C23 1_555 1_555
C5 C15 1_555 1_555
N9 C6 1_555 1_555
N11 C11 1_555 1_555
N11 C26 1_555 1_555
C8 C9 1_555 1_555
C10 C13 1_555 1_555
C13 C14 1_555 1_555
C21 C24 1_555 1_555
C25 C27 1_555 1_555
C28 C33 1_555 1_555
C29 C30 1_555 1_555
C31 C38 1_555 1_555
C32 C34 1_555 1_555
C35 C36 1_555 1_555
C37 C39 1_555 1_555

#END
