
#######################################################################
#
#                 Cambridge Crystallographic Data Centre
#                                CCDC 
#
#######################################################################
#
# If this CIF has been generated from an entry in the Cambridge 
# Structural Database, then it will include bibliographic, chemical, 
# crystal, experimental, refinement or atomic coordinate data resulting 
# from the CCDC's data processing and validation procedures.
#
#######################################################################

data_CABVIN
_chemical_formula_moiety         'C44 H36 Ag2 N12 S2 2+,2(Cl1 O4 1-)'
_chemical_name_systematic        
"bis(\m-2,2'-(thiene-2,5-diylbis(methylene-1H-pyrazole-1,3-diyl))dipyridine)-di-silver(i) diperchlorate"
_symmetry_cell_setting           orthorhombic
_symmetry_space_group_name_H-M   'P c a 21'
_symmetry_Int_Tables_number      29
_space_group_name_Hall           'P 2c -2ac'
loop_
_symmetry_equiv_pos_site_id
_symmetry_equiv_pos_as_xyz
1 x,y,z
2 -x,-y,1/2+z
3 1/2-x,y,1/2+z
4 1/2+x,-y,z
_cell_length_a                   18.5223(9)
_cell_length_b                   11.5704(6)
_cell_length_c                   21.6258(11)
_cell_angle_alpha                90
_cell_angle_beta                 90
_cell_angle_gamma                90
_cell_volume                     4634.63
_exptl_crystal_colour            colorless
_exptl_crystal_description       plate
_cell_formula_units_Z            4
loop_
_atom_site_label
_atom_site_type_symbol
_atom_site_fract_x
_atom_site_fract_y
_atom_site_fract_z
Ag1 Ag 0.638711(17) 0.26527(3) 0.808481(19)
Ag2 Ag 0.173356(18) 0.26322(3) 0.80928(2)
N1 N 0.64646(19) 0.1319(3) 0.73477(17)
C1 C 0.6835(2) 0.1481(4) 0.6821(2)
H1 H 0.7178 0.2091 0.6806
C2 C 0.6743(3) 0.0809(5) 0.6302(2)
H2 H 0.7014 0.0957 0.5938
C3 C 0.6247(3) -0.0089(4) 0.6321(2)
H3 H 0.6173 -0.0570 0.5971
C4 C 0.5862(2) -0.0269(4) 0.6861(2)
H4 H 0.5518 -0.0877 0.6885
C5 C 0.5980(2) 0.0443(4) 0.73709(19)
N2 N 0.51480(19) 0.0639(3) 0.88406(16)
N3 N 0.55898(19) 0.1055(3) 0.84016(16)
C6 C 0.5560(2) 0.0274(4) 0.79428(18)
C7 C 0.5102(2) -0.0643(3) 0.8092(3)
H5 H 0.4995 -0.1304 0.7849
C8 C 0.4841(3) -0.0380(4) 0.8669(2)
H6 H 0.4508 -0.0824 0.8904
C9 C 0.5022(2) 0.1283(4) 0.9417(2)
H7 H 0.5427 0.1826 0.9484
H8 H 0.5015 0.0733 0.9768
N4 N 0.1603(2) 0.3651(3) 0.71662(18)
C10 C 0.1209(3) 0.3319(4) 0.6679(2)
H9 H 0.0877 0.2702 0.6733
C11 C 0.1262(3) 0.3831(5) 0.6095(2)
H10 H 0.0978 0.3564 0.5758
C12 C 0.1743(3) 0.4745(5) 0.6023(2)
H11 H 0.1799 0.5109 0.5632
C13 C 0.2136(3) 0.5111(4) 0.6522(2)
H12 H 0.2461 0.5742 0.6480
C14 C 0.2060(2) 0.4561(4) 0.7093(2)
N5 N 0.2867(2) 0.4898(3) 0.85641(17)
N6 N 0.24346(19) 0.4326(3) 0.8158(2)
C15 C 0.2468(2) 0.4947(4) 0.7635(2)
C16 C 0.2918(3) 0.5910(4) 0.7707(2)
H13 H 0.3033 0.6477 0.7405
C17 C 0.3158(3) 0.5860(4) 0.8311(2)
H14 H 0.3468 0.6397 0.8510
C18 C 0.2932(3) 0.4498(4) 0.9202(2)
H15 H 0.2440 0.4369 0.9368
H16 H 0.3156 0.5122 0.9450
C19 C 0.4331(2) 0.1947(4) 0.9413(2)
C20 C 0.3687(2) 0.1610(4) 0.96694(19)
H17 H 0.3617 0.0886 0.9867
C21 C 0.3138(2) 0.2456(4) 0.9608(2)
H18 H 0.2664 0.2364 0.9768
C22 C 0.3362(2) 0.3417(4) 0.92956(19)
S1 S 0.42497(6) 0.32945(10) 0.90810(6)
N7 N 0.64362(19) 0.3757(3) 0.89488(17)
C23 C 0.6764(2) 0.3421(4) 0.9470(2)
H19 H 0.7112 0.2820 0.9444
C24 C 0.6628(3) 0.3892(4) 1.0037(2)
H20 H 0.6885 0.3638 1.0392
C25 C 0.6112(3) 0.4742(5) 1.0083(2)
H21 H 0.5999 0.5069 1.0474
C26 C 0.5762(3) 0.5117(4) 0.9558(2)
H22 H 0.5406 0.5707 0.9581
C27 C 0.5939(2) 0.4610(4) 0.8989(2)
N8 N 0.51839(19) 0.4769(3) 0.74917(17)
N9 N 0.55990(19) 0.4259(3) 0.79248(16)
C28 C 0.5563(2) 0.4951(4) 0.8418(2)
C29 C 0.5123(3) 0.5909(4) 0.8295(2)
H23 H 0.5009 0.6528 0.8566
C30 C 0.4892(2) 0.5760(4) 0.7701(2)
H24 H 0.4583 0.6263 0.7476
C31 C 0.5084(3) 0.4230(4) 0.6884(2)
H25 H 0.5566 0.4064 0.6708
H26 H 0.4845 0.4796 0.6609
N10 N 0.1537(2) 0.1506(3) 0.89564(17)
C32 C 0.1102(3) 0.1790(4) 0.9427(2)
H27 H 0.0780 0.2421 0.9369
C33 C 0.1089(3) 0.1224(5) 0.9992(2)
H28 H 0.0780 0.1472 1.0317
C34 C 0.1544(3) 0.0283(5) 1.0064(2)
H29 H 0.1548 -0.0133 1.0443
C35 C 0.1990(3) -0.0048(4) 0.9588(2)
H30 H 0.2301 -0.0694 0.9633
C36 C 0.1979(2) 0.0580(4) 0.9034(2)
N11 N 0.2920(2) 0.0417(4) 0.76162(19)
N12 N 0.24451(19) 0.0928(3) 0.80000(19)
C37 C 0.2443(3) 0.0270(4) 0.8508(2)
C38 C 0.2913(3) -0.0670(5) 0.8452(3)
H31 H 0.3010 -0.1257 0.8748
C39 C 0.3206(3) -0.0547(5) 0.7863(3)
H32 H 0.3545 -0.1049 0.7671
C40 C 0.3043(3) 0.0913(5) 0.6998(2)
H33 H 0.2622 0.1401 0.6890
H34 H 0.3062 0.0272 0.6695
C41 C 0.4657(3) 0.3147(4) 0.6877(2)
C42 C 0.4864(3) 0.2154(4) 0.6605(2)
H35 H 0.5321 0.2053 0.6412
C43 C 0.4332(3) 0.1275(4) 0.6634(2)
H36 H 0.4398 0.0523 0.6467
C44 C 0.3710(3) 0.1622(4) 0.6928(2)
S2 S 0.38070(7) 0.30375(13) 0.71865(7)
Cl1 Cl 0.40980(5) 0.76846(9) 0.63390(5)
O1 O 0.4412(8) 0.8152(11) 0.6896(6)
O2 O 0.3458(7) 0.8302(12) 0.6166(6)
O3 O 0.3910(8) 0.6455(5) 0.6416(4)
O4 O 0.4621(5) 0.7785(16) 0.5859(5)
Cl2 Cl 0.39800(6) 0.75371(9) 0.99440(5)
O9 O 0.4242(12) 0.6779(16) 1.0396(9)
O10 O 0.3274(4) 0.7190(9) 1.0110(4)
O11 O 0.4294(7) 0.8640(7) 1.0126(4)
O12 O 0.4251(6) 0.7091(9) 0.9371(5)
loop_
_geom_bond_atom_site_label_1
_geom_bond_atom_site_label_2
_geom_bond_site_symmetry_1
_geom_bond_site_symmetry_2
Ag1 N1 1_555 1_555
Ag2 N4 1_555 1_555
N1 C1 1_555 1_555
C1 H1 1_555 1_555
C2 C1 1_555 1_555
H2 C2 1_555 1_555
C3 C2 1_555 1_555
H3 C3 1_555 1_555
C4 C3 1_555 1_555
H4 C4 1_555 1_555
C5 N1 1_555 1_555
N2 N3 1_555 1_555
N3 Ag1 1_555 1_555
C6 C5 1_555 1_555
C7 C6 1_555 1_555
H5 C7 1_555 1_555
C8 N2 1_555 1_555
H6 C8 1_555 1_555
C9 N2 1_555 1_555
H7 C9 1_555 1_555
H8 C9 1_555 1_555
N4 C10 1_555 1_555
C10 H9 1_555 1_555
C11 C10 1_555 1_555
H10 C11 1_555 1_555
C12 C11 1_555 1_555
H11 C12 1_555 1_555
C13 C12 1_555 1_555
H12 C13 1_555 1_555
C14 N4 1_555 1_555
N5 N6 1_555 1_555
N6 Ag2 1_555 1_555
C15 C14 1_555 1_555
C16 C15 1_555 1_555
H13 C16 1_555 1_555
C17 N5 1_555 1_555
H14 C17 1_555 1_555
C18 N5 1_555 1_555
H15 C18 1_555 1_555
H16 C18 1_555 1_555
C19 C9 1_555 1_555
C20 C19 1_555 1_555
H17 C20 1_555 1_555
C21 C20 1_555 1_555
H18 C21 1_555 1_555
C22 C18 1_555 1_555
S1 C19 1_555 1_555
N7 Ag1 1_555 1_555
C23 N7 1_555 1_555
H19 C23 1_555 1_555
C24 C23 1_555 1_555
H20 C24 1_555 1_555
C25 C24 1_555 1_555
H21 C25 1_555 1_555
C26 C25 1_555 1_555
H22 C26 1_555 1_555
C27 N7 1_555 1_555
N8 N9 1_555 1_555
N9 Ag1 1_555 1_555
C28 C27 1_555 1_555
C29 C28 1_555 1_555
H23 C29 1_555 1_555
C30 N8 1_555 1_555
H24 C30 1_555 1_555
C31 N8 1_555 1_555
H25 C31 1_555 1_555
H26 C31 1_555 1_555
N10 Ag2 1_555 1_555
C32 N10 1_555 1_555
H27 C32 1_555 1_555
C33 C32 1_555 1_555
H28 C33 1_555 1_555
C34 C33 1_555 1_555
H29 C34 1_555 1_555
C35 C34 1_555 1_555
H30 C35 1_555 1_555
C36 N10 1_555 1_555
N11 N12 1_555 1_555
N12 Ag2 1_555 1_555
C37 C36 1_555 1_555
C38 C37 1_555 1_555
H31 C38 1_555 1_555
C39 N11 1_555 1_555
H32 C39 1_555 1_555
C40 N11 1_555 1_555
H33 C40 1_555 1_555
H34 C40 1_555 1_555
C41 C31 1_555 1_555
C42 C41 1_555 1_555
H35 C42 1_555 1_555
C43 C42 1_555 1_555
H36 C43 1_555 1_555
C44 C40 1_555 1_555
S2 C41 1_555 1_555
Cl1 O1 1_555 1_555
O2 Cl1 1_555 1_555
O3 Cl1 1_555 1_555
O4 Cl1 1_555 1_555
Cl2 O9 1_555 1_555
O10 Cl2 1_555 1_555
O11 Cl2 1_555 1_555
O12 Cl2 1_555 1_555
C4 C5 1_555 1_555
N3 C6 1_555 1_555
C7 C8 1_555 1_555
C13 C14 1_555 1_555
N6 C15 1_555 1_555
C16 C17 1_555 1_555
C21 C22 1_555 1_555
C22 S1 1_555 1_555
C26 C27 1_555 1_555
N9 C28 1_555 1_555
C29 C30 1_555 1_555
C35 C36 1_555 1_555
N12 C37 1_555 1_555
C38 C39 1_555 1_555
C43 C44 1_555 1_555
C44 S2 1_555 1_555

#END
