
#######################################################################
#
#                 Cambridge Crystallographic Data Centre
#                                CCDC 
#
#######################################################################
#
# If this CIF has been generated from an entry in the Cambridge 
# Structural Database, then it will include bibliographic, chemical, 
# crystal, experimental, refinement or atomic coordinate data resulting 
# from the CCDC's data processing and validation procedures.
#
#######################################################################

data_CAFQIL
_chemical_formula_moiety         'C80,N1 Sc3,3(C8 H10)'
_chemical_name_systematic        
'C80Fullerene (\m~3~-nitrido)-tri-scandium p-xylene solvate'
_symmetry_cell_setting           monoclinic
_symmetry_space_group_name_H-M   'C 2/m'
_symmetry_Int_Tables_number      12
_space_group_name_Hall           '-C 2y'
loop_
_symmetry_equiv_pos_site_id
_symmetry_equiv_pos_as_xyz
1 x,y,z
2 -x,y,-z
3 1/2+x,1/2+y,z
4 1/2-x,1/2+y,-z
5 -x,-y,-z
6 x,-y,z
7 1/2-x,1/2-y,-z
8 1/2+x,1/2-y,z
_cell_length_a                   17.4410(3)
_cell_length_b                   14.2204(3)
_cell_length_c                   11.6628(3)
_cell_angle_alpha                90
_cell_angle_beta                 106.274(5)
_cell_angle_gamma                90
_cell_volume                     2776.69
_exptl_crystal_colour            black
_exptl_crystal_description       block
_cell_formula_units_Z            2
loop_
_atom_site_label
_atom_site_type_symbol
_atom_site_fract_x
_atom_site_fract_y
_atom_site_fract_z
C41 C 0.43335(18) 0.5000 1.0412(3)
H1 H 0.3867 0.5000 1.0696
C42 C 0.5094(2) 0.5000 1.1239(3)
C43 C 0.5195(3) 0.5000 1.2560(4)
C44 C 0.42534(19) 0.5000 0.9200(3)
H5 H 0.3726 0.5000 0.8657
C41A C 0.56665(18) 0.5000 0.9588(3)
H1A H 0.6133 0.5000 0.9304
C42A C 0.4906(2) 0.5000 0.8761(3)
C43A C 0.4805(3) 0.5000 0.7440(4)
C44A C 0.57466(19) 0.5000 1.0800(3)
H5A H 0.6274 0.5000 1.1343
C45 C 0.21084(15) 0.7070(2) 0.5731(2)
H6 H 0.1846 0.6775 0.6255
C46 C 0.27450(16) 0.6634(2) 0.5476(2)
H7 H 0.2905 0.6030 0.5806
C47 C 0.18409(15) 0.7956(2) 0.5245(2)
C48 C 0.11410(19) 0.8421(3) 0.5533(3)
H8 H 0.1144 0.8263 0.6352
H9 H 0.0643 0.8199 0.4976
H10 H 0.1181 0.9105 0.5458
C45F C 0.28916(15) 0.7930(2) 0.4269(2)
H6F H 0.3154 0.8225 0.3745
C46F C 0.22550(16) 0.8366(2) 0.4524(2)
H7F H 0.2095 0.8970 0.4194
C47F C 0.31591(15) 0.7044(2) 0.4755(2)
C48F C 0.38590(19) 0.6579(3) 0.4467(3)
H8F H 0.3856 0.6737 0.3648
H9F H 0.4357 0.6801 0.5024
H10F H 0.3819 0.5895 0.4542
N1 N 0.5000 0.0000 1.0000
Sc3 Sc 0.54954(17) 0.0000 1.1783(3)
Sc4 Sc 0.45094(8) -0.12393(9) 0.93158(13)
Sc3A Sc 0.45046(17) 0.0000 0.8217(3)
Sc4A Sc 0.54906(8) -0.12393(9) 1.06842(13)
Sc4D Sc 0.54906(8) 0.12393(9) 1.06842(13)
Sc4E Sc 0.45094(8) 0.12393(9) 0.93158(13)
C1 C 0.3211(3) 0.1259(4) 0.7437(4)
C2 C 0.3018(3) 0.1580(4) 0.8473(4)
C3 C 0.2661(3) 0.0875(4) 0.9036(5)
C4 C 0.2606(2) 0.0080(5) 0.8247(4)
C5 C 0.2930(3) 0.0286(3) 0.7264(5)
C6 C 0.3358(3) 0.0360(4) 0.6795(5)
C7 C 0.3994(3) 0.0101(5) 0.6351(4)
C8 C 0.4277(3) 0.0902(4) 0.6509(4)
C9 C 0.3869(3) 0.1546(4) 0.7069(4)
C10 C 0.4364(3) 0.2304(3) 0.7781(4)
C11 C 0.4153(3) 0.2621(3) 0.8828(4)
C12 C 0.3526(3) 0.2283(4) 0.9236(4)
C13 C 0.3605(3) 0.2220(4) 1.0438(4)
C14 C 0.3276(3) 0.1491(4) 1.0996(4)
C15 C 0.2810(3) 0.0785(4) 1.0290(4)
C16 C 0.2829(2) -0.0140(4) 1.0710(4)
C17 C 0.2755(3) 0.0931(4) 0.9892(5)
C18 C 0.2678(3) 0.0832(4) 0.8688(5)
C19 C 0.3086(3) 0.1536(4) 0.8154(5)
C20 C 0.3394(3) 0.1282(4) 0.7217(5)
C21 C 0.4091(3) 0.1866(4) 0.7316(5)
C22 C 0.4175(3) 0.2539(4) 0.8343(5)
C23 C 0.3523(3) 0.2316(4) 0.8834(5)
C24 C 0.3655(3) 0.2353(4) 1.0074(5)
C25 C 0.3266(3) 0.1697(4) 1.0623(5)
C26 C 0.3585(3) 0.1299(4) 1.1780(4)
C27 C 0.3360(3) -0.0364(4) 1.1886(4)
C28 C 0.3818(3) 0.0324(4) 1.2540(4)
C29 C 0.3804(3) 0.1276(4) 1.2134(5)
C30 C 0.4365(3) 0.2473(4) 1.1263(5)
C31 C 0.4474(3) 0.1857(4) 1.2342(5)
C32 C 0.4716(3) 0.1569(4) 0.6971(5)
C33 C 0.4701(4) -0.0648(5) 0.6479(5)
C34 C 0.4599(3) 0.0111(5) 1.3297(3)
C35 C 0.5130(3) 0.0864(4) 0.6728(4)
C36 C 0.4361(3) 0.1591(4) 1.2497(4)
C37 C 0.5229(3) 0.2323(4) 0.8015(4)
C38 C 0.4434(3) 0.2656(3) 1.0805(4)
C39 C 0.4929(3) 0.2837(3) 0.9707(4)
C40 C 0.4954(3) 0.2775(4) 0.9057(5)
C1E C 0.3211(3) -0.1259(4) 0.7437(4)
C1D C 0.6789(3) -0.1259(4) 1.2563(4)
C1A C 0.6789(3) 0.1259(4) 1.2563(4)
C2E C 0.3018(3) -0.1580(4) 0.8473(4)
C2D C 0.6982(3) -0.1580(4) 1.1527(4)
C2A C 0.6982(3) 0.1580(4) 1.1527(4)
C3E C 0.2661(3) -0.0875(4) 0.9036(5)
C3D C 0.7339(3) -0.0875(4) 1.0964(5)
C3A C 0.7339(3) 0.0875(4) 1.0964(5)
C4E C 0.2606(2) -0.0080(5) 0.8247(4)
C4D C 0.7394(2) -0.0080(5) 1.1753(4)
C4A C 0.7394(2) 0.0080(5) 1.1753(4)
C5E C 0.2930(3) -0.0286(3) 0.7264(5)
C5D C 0.7070(3) -0.0286(3) 1.2736(5)
C5A C 0.7070(3) 0.0286(3) 1.2736(5)
C6E C 0.3358(3) -0.0360(4) 0.6795(5)
C6A C 0.6642(3) 0.0360(4) 1.3205(5)
C6D C 0.6642(3) -0.0360(4) 1.3205(5)
C7E C 0.3994(3) -0.0101(5) 0.6351(4)
C7A C 0.6006(3) 0.0101(5) 1.3649(4)
C7D C 0.6006(3) -0.0101(5) 1.3649(4)
C8E C 0.4277(3) -0.0902(4) 0.6509(4)
C8A C 0.5723(3) 0.0902(4) 1.3491(4)
C8D C 0.5723(3) -0.0902(4) 1.3491(4)
C9E C 0.3869(3) -0.1546(4) 0.7069(4)
C9A C 0.6131(3) 0.1546(4) 1.2931(4)
C9D C 0.6131(3) -0.1546(4) 1.2931(4)
C10E C 0.4364(3) -0.2304(3) 0.7781(4)
C10A C 0.5636(3) 0.2304(3) 1.2219(4)
C10D C 0.5636(3) -0.2304(3) 1.2219(4)
C11E C 0.4153(3) -0.2621(3) 0.8828(4)
C11A C 0.5847(3) 0.2621(3) 1.1172(4)
C11D C 0.5847(3) -0.2621(3) 1.1172(4)
C12E C 0.3526(3) -0.2283(4) 0.9236(4)
C12D C 0.6474(3) -0.2283(4) 1.0764(4)
C12A C 0.6474(3) 0.2283(4) 1.0764(4)
C13E C 0.3605(3) -0.2220(4) 1.0438(4)
C13D C 0.6395(3) -0.2220(4) 0.9562(4)
C13A C 0.6395(3) 0.2220(4) 0.9562(4)
C14E C 0.3276(3) -0.1491(4) 1.0996(4)
C14A C 0.6724(3) 0.1491(4) 0.9004(4)
C14D C 0.6724(3) -0.1491(4) 0.9004(4)
C15E C 0.2810(3) -0.0785(4) 1.0290(4)
C15A C 0.7190(3) 0.0785(4) 0.9710(4)
C15D C 0.7190(3) -0.0785(4) 0.9710(4)
C16E C 0.2829(2) 0.0140(4) 1.0710(4)
C16D C 0.7171(2) 0.0140(4) 0.9290(4)
C16A C 0.7171(2) -0.0140(4) 0.9290(4)
C17E C 0.2755(3) -0.0931(4) 0.9892(5)
C17A C 0.7245(3) 0.0931(4) 1.0108(5)
C17D C 0.7245(3) -0.0931(4) 1.0108(5)
C18E C 0.2678(3) -0.0832(4) 0.8688(5)
C18D C 0.7322(3) -0.0832(4) 1.1312(5)
C18A C 0.7322(3) 0.0832(4) 1.1312(5)
C19E C 0.3086(3) -0.1536(4) 0.8154(5)
C19A C 0.6914(3) 0.1536(4) 1.1846(5)
C19D C 0.6914(3) -0.1536(4) 1.1846(5)
C20E C 0.3394(3) -0.1282(4) 0.7217(5)
C20A C 0.6606(3) 0.1282(4) 1.2783(5)
C20D C 0.6606(3) -0.1282(4) 1.2783(5)
C21E C 0.4091(3) -0.1866(4) 0.7316(5)
C21A C 0.5909(3) 0.1866(4) 1.2684(5)
C21D C 0.5909(3) -0.1866(4) 1.2684(5)
C22E C 0.4175(3) -0.2539(4) 0.8343(5)
C22A C 0.5825(3) 0.2539(4) 1.1657(5)
C22D C 0.5825(3) -0.2539(4) 1.1657(5)
C23E C 0.3523(3) -0.2316(4) 0.8834(5)
C23A C 0.6477(3) 0.2316(4) 1.1166(5)
C23D C 0.6477(3) -0.2316(4) 1.1166(5)
C24E C 0.3655(3) -0.2353(4) 1.0074(5)
C24A C 0.6345(3) 0.2353(4) 0.9926(5)
C24D C 0.6345(3) -0.2353(4) 0.9926(5)
C25E C 0.3266(3) -0.1697(4) 1.0623(5)
C25A C 0.6734(3) 0.1697(4) 0.9377(5)
C25D C 0.6734(3) -0.1697(4) 0.9377(5)
C26D C 0.6415(3) -0.1299(4) 0.8220(4)
C26E C 0.3585(3) -0.1299(4) 1.1780(4)
C26A C 0.6415(3) 0.1299(4) 0.8220(4)
C27E C 0.3360(3) 0.0364(4) 1.1886(4)
C27D C 0.6640(3) 0.0364(4) 0.8114(4)
C27A C 0.6640(3) -0.0364(4) 0.8114(4)
C28E C 0.3818(3) -0.0324(4) 1.2540(4)
C28D C 0.6182(3) -0.0324(4) 0.7460(4)
C28A C 0.6182(3) 0.0324(4) 0.7460(4)
C29E C 0.3804(3) -0.1276(4) 1.2134(5)
C29D C 0.6196(3) -0.1276(4) 0.7866(5)
C29A C 0.6196(3) 0.1276(4) 0.7866(5)
C30D C 0.5635(3) -0.2473(4) 0.8737(5)
C30E C 0.4365(3) -0.2473(4) 1.1263(5)
C30A C 0.5635(3) 0.2473(4) 0.8737(5)
C31D C 0.5526(3) -0.1857(4) 0.7658(5)
C31E C 0.4474(3) -0.1857(4) 1.2342(5)
C31A C 0.5526(3) 0.1857(4) 0.7658(5)
C32E C 0.4716(3) -0.1569(4) 0.6971(5)
C32D C 0.5284(3) -0.1569(4) 1.3029(5)
C32A C 0.5284(3) 0.1569(4) 1.3029(5)
C33A C 0.5299(4) -0.0648(5) 1.3521(5)
C33D C 0.5299(4) 0.0648(5) 1.3521(5)
C33E C 0.4701(4) 0.0648(5) 0.6479(5)
C34A C 0.5401(3) 0.0111(5) 0.6703(3)
C34D C 0.5401(3) -0.0111(5) 0.6703(3)
C34E C 0.4599(3) -0.0111(5) 1.3297(3)
C35E C 0.5130(3) -0.0864(4) 0.6728(4)
C35D C 0.4870(3) -0.0864(4) 1.3272(4)
C35A C 0.4870(3) 0.0864(4) 1.3272(4)
C36D C 0.5639(3) -0.1591(4) 0.7503(4)
C36A C 0.5639(3) 0.1591(4) 0.7503(4)
C36E C 0.4361(3) -0.1591(4) 1.2497(4)
C37E C 0.5229(3) -0.2323(4) 0.8015(4)
C37D C 0.4771(3) -0.2323(4) 1.1985(4)
C37A C 0.4771(3) 0.2323(4) 1.1985(4)
C38E C 0.4434(3) -0.2656(3) 1.0805(4)
C38D C 0.5566(3) -0.2656(3) 0.9195(4)
C38A C 0.5566(3) 0.2656(3) 0.9195(4)
C39E C 0.4929(3) -0.2837(3) 0.9707(4)
C39D C 0.5071(3) -0.2837(3) 1.0293(4)
C39A C 0.5071(3) 0.2837(3) 1.0293(4)
C40E C 0.4954(3) -0.2775(4) 0.9057(5)
C40D C 0.5046(3) -0.2775(4) 1.0943(5)
C40A C 0.5046(3) 0.2775(4) 1.0943(5)
loop_
_geom_bond_atom_site_label_1
_geom_bond_atom_site_label_2
_geom_bond_site_symmetry_1
_geom_bond_site_symmetry_2
C1 C2 1_555 1_555
C2 C3 1_555 1_555
C3 C4 1_555 1_555
C4 C5 1_555 1_555
C5 C1 1_555 1_555
C6 C1 1_555 1_555
C7 C6 1_555 1_555
C8 C7 1_555 1_555
C9 C1 1_555 1_555
C10 C9 1_555 1_555
C11 C10 1_555 1_555
C12 C2 1_555 1_555
C13 C12 1_555 1_555
C14 C13 1_555 1_555
C15 C3 1_555 1_555
C16 C15 1_555 1_555
C17 C3 1_555 1_555
C18 C2 1_555 1_555
C19 C1 1_555 1_555
C20 C1 1_555 1_555
C21 C8 1_555 1_555
C22 C10 1_555 1_555
C23 C2 1_555 1_555
C24 C12 1_555 1_555
C25 C13 1_555 1_555
C26 C14 1_555 1_555
C27 C16 1_555 1_555
C28 C26 1_555 1_555
C29 C14 1_555 1_555
C30 C13 1_555 1_555
C31 C26 1_555 1_555
C32 C8 1_555 1_555
C33 C7 1_555 1_555
C34 C28 1_555 1_555
C35 C8 1_555 1_555
C36 C26 1_555 1_555
C37 C10 1_555 1_555
C38 C13 1_555 1_555
C39 C11 1_555 1_555
C40 C10 1_555 1_555
C41 H1 1_555 1_555
C42 C41 1_555 1_555
C43 C42 1_555 1_555
C44 C41 1_555 1_555
H5 C44 1_555 1_555
C45 H6 1_555 1_555
C46 C45 1_555 1_555
H7 C46 1_555 1_555
C47 C45 1_555 1_555
C48 C47 1_555 1_555
H8 C48 1_555 1_555
H9 C48 1_555 1_555
H10 C48 1_555 1_555
N1 Sc3 1_555 1_555
Sc3 Sc4A 1_555 1_555
Sc4 N1 1_555 1_555
C1E C2E 1_555 1_555
C1D C2D 1_555 1_555
C1A C2A 1_555 1_555
C2E C3E 1_555 1_555
C2D C3D 1_555 1_555
C2A C3A 1_555 1_555
C3E C4 1_555 1_555
C3D C4D 1_555 1_555
C3A C4D 1_555 1_555
C4E C3 1_555 1_555
C4D C4A 1_555 1_555
C4A C3D 1_555 1_555
C5E C4 1_555 1_555
C5D C1D 1_555 1_555
C5A C1A 1_555 1_555
C6E C5 1_555 1_555
C6A C1A 1_555 1_555
C6D C1D 1_555 1_555
C7E C6 1_555 1_555
C7A C6A 1_555 1_555
C7D C6A 1_555 1_555
C8E C7 1_555 1_555
C8A C7A 1_555 1_555
C8D C7A 1_555 1_555
C9E C1E 1_555 1_555
C9A C1A 1_555 1_555
C9D C1D 1_555 1_555
C10E C9E 1_555 1_555
C10A C9A 1_555 1_555
C10D C9D 1_555 1_555
C11E C10E 1_555 1_555
C11A C10A 1_555 1_555
C11D C10D 1_555 1_555
C12E C2E 1_555 1_555
C12D C2D 1_555 1_555
C12A C2A 1_555 1_555
C13E C12E 1_555 1_555
C13D C12D 1_555 1_555
C13A C12A 1_555 1_555
C14E C13E 1_555 1_555
C14A C13A 1_555 1_555
C14D C13D 1_555 1_555
C15E C16 1_555 1_555
C15A C3A 1_555 1_555
C15D C3D 1_555 1_555
C16E C15 1_555 1_555
C16D C15A 1_555 1_555
C16A C15A 1_555 1_555
C17E C16 1_555 1_555
C17A C3A 1_555 1_555
C17D C3D 1_555 1_555
C18E C4 1_555 1_555
C18D C2D 1_555 1_555
C18A C2A 1_555 1_555
C19E C1E 1_555 1_555
C19A C1A 1_555 1_555
C19D C1D 1_555 1_555
C20E C1E 1_555 1_555
C20A C1A 1_555 1_555
C20D C1D 1_555 1_555
C21E C8E 1_555 1_555
C21A C8A 1_555 1_555
C21D C8D 1_555 1_555
C22E C10E 1_555 1_555
C22A C10A 1_555 1_555
C22D C10D 1_555 1_555
C23E C2E 1_555 1_555
C23A C2A 1_555 1_555
C23D C2D 1_555 1_555
C24E C12E 1_555 1_555
C24A C12A 1_555 1_555
C24D C12D 1_555 1_555
C25E C13E 1_555 1_555
C25A C13A 1_555 1_555
C25D C13D 1_555 1_555
C26D C14D 1_555 1_555
C26E C27 1_555 1_555
C26A C14A 1_555 1_555
C27E C16 1_555 1_555
C27D C16D 1_555 1_555
C27A C16D 1_555 1_555
C28E C27 1_555 1_555
C28D C26D 1_555 1_555
C28A C26A 1_555 1_555
C29E C27 1_555 1_555
C29D C14D 1_555 1_555
C29A C14A 1_555 1_555
C30D C13D 1_555 1_555
C30E C13E 1_555 1_555
C30A C37 1_555 1_555
C31D C26D 1_555 1_555
C31E C26E 1_555 1_555
C31A C32 1_555 1_555
C32E C33 1_555 1_555
C32D C8D 1_555 1_555
C32A C31 1_555 1_555
C33A C34 1_555 1_555
C33D C34 1_555 1_555
C33E C7 1_555 1_555
C34A C33 1_555 1_555
C34D C33 1_555 1_555
C34E C28 1_555 1_555
C35E C33 1_555 1_555
C35D C34 1_555 1_555
C35A C34 1_555 1_555
C36D C26D 1_555 1_555
C36A C32 1_555 1_555
C36E C26E 1_555 1_555
C37E C10E 1_555 1_555
C37D C10D 1_555 1_555
C37A C30 1_555 1_555
C38E C13E 1_555 1_555
C38D C13D 1_555 1_555
C38A C37 1_555 1_555
C39E C11E 1_555 1_555
C39D C11D 1_555 1_555
C39A C38 1_555 1_555
C40E C10E 1_555 1_555
C40D C10D 1_555 1_555
C40A C30 1_555 1_555
C41A H1A 1_555 1_555
C42A C44 1_555 1_555
C43A C42A 1_555 1_555
C44A C42 1_555 1_555
H5A C44A 1_555 1_555
C45F H6F 1_555 1_555
C46F C47 1_555 1_555
H7F C46F 1_555 1_555
C47F C46 1_555 1_555
C48F C47F 1_555 1_555
H8F C48F 1_555 1_555
H9F C48F 1_555 1_555
H10F C48F 1_555 1_555
Sc3A N1 1_555 1_555
Sc4A N1 1_555 1_555
Sc4D N1 1_555 1_555
Sc4E N1 1_555 1_555
C2 C19 1_555 1_555
C3 C18 1_555 1_555
C3 C19 1_555 1_555
C4 C18 1_555 1_555
C4 C4E 1_555 1_555
C5 C6 1_555 1_555
C5 C20 1_555 1_555
C5 C4E 1_555 1_555
C5 C5E 1_555 1_555
C6 C20 1_555 1_555
C6 C5E 1_555 1_555
C6 C6E 1_555 1_555
C7 C6E 1_555 1_555
C7 C7E 1_555 1_555
C8 C9 1_555 1_555
C8 C7E 1_555 1_555
C8 C33E 1_555 1_555
C9 C20 1_555 1_555
C9 C21 1_555 1_555
C9 C32 1_555 1_555
C10 C21 1_555 1_555
C10 C32 1_555 1_555
C11 C12 1_555 1_555
C11 C22 1_555 1_555
C11 C23 1_555 1_555
C11 C40 1_555 1_555
C12 C19 1_555 1_555
C12 C23 1_555 1_555
C13 C24 1_555 1_555
C14 C15 1_555 1_555
C14 C17 1_555 1_555
C14 C25 1_555 1_555
C15 C17 1_555 1_555
C15 C25 1_555 1_555
C16 C16E 1_555 1_555
C17 C18 1_555 1_555
C17 C25 1_555 1_555
C17 C16E 1_555 1_555
C18 C19 1_555 1_555
C18 C4E 1_555 1_555
C19 C20 1_555 1_555
C19 C23 1_555 1_555
C20 C21 1_555 1_555
C21 C22 1_555 1_555
C21 C32 1_555 1_555
C22 C23 1_555 1_555
C22 C40 1_555 1_555
C23 C24 1_555 1_555
C24 C25 1_555 1_555
C24 C30 1_555 1_555
C24 C38 1_555 1_555
C25 C26 1_555 1_555
C26 C29 1_555 1_555
C26 C27E 1_555 1_555
C27 C28 1_555 1_555
C27 C16E 1_555 1_555
C27 C27E 1_555 1_555
C28 C29 1_555 1_555
C28 C27E 1_555 1_555
C28 C28E 1_555 1_555
C29 C31 1_555 1_555
C29 C36 1_555 1_555
C29 C27E 1_555 1_555
C30 C31 1_555 1_555
C30 C38 1_555 1_555
C31 C36 1_555 1_555
C31 C37A 1_555 1_555
C32 C35 1_555 1_555
C32 C37 1_555 1_555
C32 C33E 1_555 1_555
C33 C7E 1_555 1_555
C33 C8E 1_555 1_555
C34 C28E 1_555 1_555
C34 C34E 1_555 1_555
C35 C33E 1_555 1_555
C35 C34A 1_555 1_555
C35 C34D 1_555 1_555
C35 C36A 1_555 1_555
C36 C32A 1_555 1_555
C36 C35A 1_555 1_555
C36 C37A 1_555 1_555
C37 C40 1_555 1_555
C37 C31A 1_555 1_555
C37 C36A 1_555 1_555
C38 C39 1_555 1_555
C38 C37A 1_555 1_555
C38 C40A 1_555 1_555
C39 C40 1_555 1_555
C39 C38A 1_555 1_555
C39 C39A 1_555 1_555
C39 C40A 1_555 1_555
C40 C30A 1_555 1_555
C40 C38A 1_555 1_555
C40 C39A 1_555 1_555
Sc3 Sc4D 1_555 1_555
Sc4 Sc3A 1_555 1_555
Sc4 Sc4A 1_555 1_555
C1E C5E 1_555 1_555
C1E C6E 1_555 1_555
C2E C18E 1_555 1_555
C2E C19E 1_555 1_555
C2D C19D 1_555 1_555
C2A C19A 1_555 1_555
C3E C4E 1_555 1_555
C3E C15E 1_555 1_555
C3E C17E 1_555 1_555
C3E C18E 1_555 1_555
C3E C19E 1_555 1_555
C3D C18D 1_555 1_555
C3D C19D 1_555 1_555
C3A C4A 1_555 1_555
C3A C18A 1_555 1_555
C3A C19A 1_555 1_555
C4E C5E 1_555 1_555
C4E C18E 1_555 1_555
C4D C5D 1_555 1_555
C4D C5A 1_555 1_555
C4D C18D 1_555 1_555
C4D C18A 1_555 1_555
C4A C5D 1_555 1_555
C4A C5A 1_555 1_555
C4A C18D 1_555 1_555
C4A C18A 1_555 1_555
C5E C6E 1_555 1_555
C5E C20E 1_555 1_555
C5D C5A 1_555 1_555
C5D C6A 1_555 1_555
C5D C6D 1_555 1_555
C5D C20D 1_555 1_555
C5A C6A 1_555 1_555
C5A C6D 1_555 1_555
C5A C20A 1_555 1_555
C6E C7E 1_555 1_555
C6E C20E 1_555 1_555
C6A C6D 1_555 1_555
C6A C20A 1_555 1_555
C6D C7A 1_555 1_555
C6D C7D 1_555 1_555
C6D C20D 1_555 1_555
C7E C8E 1_555 1_555
C7E C33E 1_555 1_555
C7A C7D 1_555 1_555
C7A C33A 1_555 1_555
C7A C33D 1_555 1_555
C7D C8A 1_555 1_555
C7D C8D 1_555 1_555
C7D C33A 1_555 1_555
C7D C33D 1_555 1_555
C8E C9E 1_555 1_555
C8E C32E 1_555 1_555
C8E C35E 1_555 1_555
C8A C9A 1_555 1_555
C8A C32A 1_555 1_555
C8A C33D 1_555 1_555
C8A C35A 1_555 1_555
C8D C9D 1_555 1_555
C8D C33A 1_555 1_555
C8D C35D 1_555 1_555
C9E C20E 1_555 1_555
C9E C21E 1_555 1_555
C9E C32E 1_555 1_555
C9A C20A 1_555 1_555
C9A C21A 1_555 1_555
C9A C32A 1_555 1_555
C9D C20D 1_555 1_555
C9D C21D 1_555 1_555
C9D C32D 1_555 1_555
C10E C21E 1_555 1_555
C10E C32E 1_555 1_555
C10A C21A 1_555 1_555
C10A C32A 1_555 1_555
C10A C37A 1_555 1_555
C10A C40A 1_555 1_555
C10D C21D 1_555 1_555
C10D C32D 1_555 1_555
C11E C12E 1_555 1_555
C11E C22E 1_555 1_555
C11E C23E 1_555 1_555
C11E C40E 1_555 1_555
C11A C12A 1_555 1_555
C11A C22A 1_555 1_555
C11A C23A 1_555 1_555
C11A C39A 1_555 1_555
C11A C40A 1_555 1_555
C11D C12D 1_555 1_555
C11D C22D 1_555 1_555
C11D C23D 1_555 1_555
C11D C40D 1_555 1_555
C12E C19E 1_555 1_555
C12E C23E 1_555 1_555
C12D C19D 1_555 1_555
C12D C23D 1_555 1_555
C12A C19A 1_555 1_555
C12A C23A 1_555 1_555
C13E C24E 1_555 1_555
C13D C24D 1_555 1_555
C13A C24A 1_555 1_555
C13A C30A 1_555 1_555
C13A C38A 1_555 1_555
C14E C15E 1_555 1_555
C14E C17E 1_555 1_555
C14E C25E 1_555 1_555
C14E C26E 1_555 1_555
C14E C29E 1_555 1_555
C14A C15A 1_555 1_555
C14A C17A 1_555 1_555
C14A C25A 1_555 1_555
C14D C15D 1_555 1_555
C14D C17D 1_555 1_555
C14D C25D 1_555 1_555
C15E C16E 1_555 1_555
C15E C17E 1_555 1_555
C15E C25E 1_555 1_555
C15A C17A 1_555 1_555
C15A C25A 1_555 1_555
C15D C16D 1_555 1_555
C15D C16A 1_555 1_555
C15D C17D 1_555 1_555
C15D C25D 1_555 1_555
C16E C27E 1_555 1_555
C16D C16A 1_555 1_555
C16D C17A 1_555 1_555
C16A C17D 1_555 1_555
C16A C27D 1_555 1_555
C16A C27A 1_555 1_555
C17E C18E 1_555 1_555
C17E C25E 1_555 1_555
C17A C18A 1_555 1_555
C17A C25A 1_555 1_555
C17D C18D 1_555 1_555
C17D C25D 1_555 1_555
C18E C19E 1_555 1_555
C18D C19D 1_555 1_555
C18A C19A 1_555 1_555
C19E C20E 1_555 1_555
C19E C23E 1_555 1_555
C19A C20A 1_555 1_555
C19A C23A 1_555 1_555
C19D C20D 1_555 1_555
C19D C23D 1_555 1_555
C20E C21E 1_555 1_555
C20A C21A 1_555 1_555
C20D C21D 1_555 1_555
C21E C22E 1_555 1_555
C21E C32E 1_555 1_555
C21A C22A 1_555 1_555
C21A C32A 1_555 1_555
C21D C22D 1_555 1_555
C21D C32D 1_555 1_555
C22E C23E 1_555 1_555
C22E C40E 1_555 1_555
C22A C23A 1_555 1_555
C22A C40A 1_555 1_555
C22D C23D 1_555 1_555
C22D C40D 1_555 1_555
C23E C24E 1_555 1_555
C23A C24A 1_555 1_555
C23D C24D 1_555 1_555
C24E C25E 1_555 1_555
C24E C30E 1_555 1_555
C24E C38E 1_555 1_555
C24A C25A 1_555 1_555
C24A C30A 1_555 1_555
C24A C38A 1_555 1_555
C24D C25D 1_555 1_555
C24D C30D 1_555 1_555
C24D C38D 1_555 1_555
C25E C26E 1_555 1_555
C25A C26A 1_555 1_555
C25D C26D 1_555 1_555
C26D C27A 1_555 1_555
C26D C29D 1_555 1_555
C26E C28E 1_555 1_555
C26E C29E 1_555 1_555
C26A C27D 1_555 1_555
C26A C29A 1_555 1_555
C26A C31A 1_555 1_555
C26A C36A 1_555 1_555
C27E C28E 1_555 1_555
C27D C27A 1_555 1_555
C27D C28D 1_555 1_555
C27D C28A 1_555 1_555
C27D C29A 1_555 1_555
C27A C28D 1_555 1_555
C27A C28A 1_555 1_555
C27A C29D 1_555 1_555
C28E C29E 1_555 1_555
C28E C34E 1_555 1_555
C28D C28A 1_555 1_555
C28D C29D 1_555 1_555
C28D C34A 1_555 1_555
C28D C34D 1_555 1_555
C28A C29A 1_555 1_555
C28A C34A 1_555 1_555
C28A C34D 1_555 1_555
C29E C31E 1_555 1_555
C29E C36E 1_555 1_555
C29D C31D 1_555 1_555
C29D C36D 1_555 1_555
C29A C31A 1_555 1_555
C29A C36A 1_555 1_555
C30D C31D 1_555 1_555
C30D C37E 1_555 1_555
C30D C38D 1_555 1_555
C30D C40E 1_555 1_555
C30E C31E 1_555 1_555
C30E C37D 1_555 1_555
C30E C38E 1_555 1_555
C30E C40D 1_555 1_555
C30A C31A 1_555 1_555
C30A C38A 1_555 1_555
C31D C32E 1_555 1_555
C31D C36D 1_555 1_555
C31D C37E 1_555 1_555
C31E C32D 1_555 1_555
C31E C36E 1_555 1_555
C31E C37D 1_555 1_555
C31A C36A 1_555 1_555
C32E C35E 1_555 1_555
C32E C36D 1_555 1_555
C32E C37E 1_555 1_555
C32D C33A 1_555 1_555
C32D C35D 1_555 1_555
C32D C36E 1_555 1_555
C32D C37D 1_555 1_555
C32A C33D 1_555 1_555
C32A C35A 1_555 1_555
C32A C37A 1_555 1_555
C33A C34E 1_555 1_555
C33A C35D 1_555 1_555
C33D C34E 1_555 1_555
C33D C35A 1_555 1_555
C33E C34A 1_555 1_555
C33E C34D 1_555 1_555
C34A C34D 1_555 1_555
C34A C35E 1_555 1_555
C34D C35E 1_555 1_555
C34E C35D 1_555 1_555
C34E C35A 1_555 1_555
C35E C36D 1_555 1_555
C35D C36E 1_555 1_555
C36D C37E 1_555 1_555
C36E C37D 1_555 1_555
C37E C38D 1_555 1_555
C37E C40E 1_555 1_555
C37D C38E 1_555 1_555
C37D C40D 1_555 1_555
C37A C40A 1_555 1_555
C38E C39E 1_555 1_555
C38E C39D 1_555 1_555
C38E C40D 1_555 1_555
C38D C39E 1_555 1_555
C38D C39D 1_555 1_555
C38D C40E 1_555 1_555
C38A C39A 1_555 1_555
C39E C39D 1_555 1_555
C39E C40E 1_555 1_555
C39E C40D 1_555 1_555
C39D C40E 1_555 1_555
C39D C40D 1_555 1_555
C39A C40A 1_555 1_555
C41A C42A 1_555 1_555
C41A C44A 1_555 1_555
C45F C46F 1_555 1_555
C45F C47F 1_555 1_555
Sc3A Sc4E 1_555 1_555
Sc4D Sc4E 1_555 1_555

#END
