
#######################################################################
#
#                 Cambridge Crystallographic Data Centre
#                                CCDC 
#
#######################################################################
#
# If this CIF has been generated from an entry in the Cambridge 
# Structural Database, then it will include bibliographic, chemical, 
# crystal, experimental, refinement or atomic coordinate data resulting 
# from the CCDC's data processing and validation procedures.
#
#######################################################################

data_CITVAD
_chemical_formula_moiety         'C40 H28 Cu4 N12 O4 4+,4(F6 P1 1-)'
_chemical_name_systematic        
'tetrakis(\m~2~-4-(2-Pyridyl)pyrimidine)-tetracarbonyl-tetra-copper(i) hexafluorophosphate clathrate tris(hexafluorophosphate)'
_symmetry_cell_setting           tetragonal
_symmetry_space_group_name_H-M   'P 4/n'
_symmetry_Int_Tables_number      85
_space_group_name_Hall           '-P 4a'
loop_
_symmetry_equiv_pos_site_id
_symmetry_equiv_pos_as_xyz
1 x,y,z
2 1/2-y,x,z
3 y,1/2-x,z
4 1/2-x,1/2-y,z
5 -x,-y,-z
6 1/2+y,-x,-z
7 -y,1/2+x,-z
8 1/2+x,1/2+y,-z
_cell_length_a                   14.8455(8)
_cell_length_b                   14.8455(8)
_cell_length_c                   12.2984(9)
_cell_angle_alpha                90
_cell_angle_beta                 90
_cell_angle_gamma                90
_cell_volume                     2710.43
_exptl_crystal_colour            'pale yellow'
_exptl_crystal_description       Platelet
_cell_formula_units_Z            2
_chemical_properties_physical    air-sensitive
loop_
_atom_site_label
_atom_site_type_symbol
_atom_site_fract_x
_atom_site_fract_y
_atom_site_fract_z
Cu1 Cu 0.37827(2) -0.00077(2) 0.61783(3)
O1 O 0.3566(2) -0.0205(2) 0.3819(2)
N1 N 0.4462(2) 0.1053(2) 0.6865(2)
N2 N 0.4537(2) -0.0681(2) 0.7312(2)
N3 N 0.2561(2) 0.0037(2) 0.6951(2)
C1 C 0.4464(2) 0.1899(2) 0.6527(2)
C2 C 0.2342(2) -0.0467(2) 0.7808(3)
C3 C 0.1483(2) -0.0492(2) 0.8229(3)
C4 C 0.5525(2) -0.0492(2) 0.8827(3)
C5 C 0.5563(2) -0.1418(2) 0.8973(3)
C6 C 0.5080(3) -0.1961(2) 0.8281(3)
C7 C 0.4570(2) -0.1572(2) 0.7467(3)
C8 C 0.4987(2) 0.0830(2) 0.7716(2)
C9 C 0.5013(2) -0.0144(2) 0.7984(2)
C10 C 0.3681(2) -0.0144(2) 0.4717(3)
H1 H 0.5847 -0.0101 0.9300
H2 H 0.5917 -0.1671 0.9540
H3 H 0.5097 -0.2597 0.8362
H4 H 0.1345 -0.0845 0.8851
H5 H 0.4080 0.2048 0.5936
H6 H 0.4230 -0.1951 0.6999
H7 H 0.2797 -0.0824 0.8141
Cu1A Cu 0.50077(2) 0.37827(2) 0.61783(3)
Cu1C Cu 0.12173(2) 0.50077(2) 0.61783(3)
Cu1B Cu -0.00077(2) 0.12173(2) 0.61783(3)
O1B O -0.0205(2) 0.1434(2) 0.3819(2)
O1C O 0.1434(2) 0.5205(2) 0.3819(2)
O1A O 0.5205(2) 0.3566(2) 0.3819(2)
N1A N 0.3947(2) 0.4462(2) 0.6865(2)
N1C N 0.0538(2) 0.3947(2) 0.6865(2)
N1B N 0.1053(2) 0.0538(2) 0.6865(2)
N2B N -0.0681(2) 0.0463(2) 0.7312(2)
N2C N 0.0463(2) 0.5681(2) 0.7312(2)
N2A N 0.5681(2) 0.4537(2) 0.7312(2)
N3A N 0.4963(2) 0.2561(2) 0.6951(2)
N3C N 0.2439(2) 0.4963(2) 0.6951(2)
N3B N 0.0037(2) 0.2439(2) 0.6951(2)
C1A C 0.3101(2) 0.4464(2) 0.6527(2)
C1C C 0.0536(2) 0.3101(2) 0.6527(2)
C1B C 0.1899(2) 0.0536(2) 0.6527(2)
C2A C 0.5467(2) 0.2342(2) 0.7808(3)
C2B C -0.0467(2) 0.2658(2) 0.7808(3)
C2C C 0.2658(2) 0.5467(2) 0.7808(3)
C3A C 0.5492(2) 0.1483(2) 0.8229(3)
C3B C -0.0492(2) 0.3517(2) 0.8229(3)
C3C C 0.3517(2) 0.5492(2) 0.8229(3)
C4B C -0.0492(2) -0.0525(2) 0.8827(3)
C4C C -0.0525(2) 0.5492(2) 0.8827(3)
C4A C 0.5492(2) 0.5525(2) 0.8827(3)
C5B C -0.1418(2) -0.0563(2) 0.8973(3)
C5C C -0.0563(2) 0.6418(2) 0.8973(3)
C5A C 0.6418(2) 0.5563(2) 0.8973(3)
C6B C -0.1961(2) -0.0080(3) 0.8281(3)
C6C C -0.0080(3) 0.6961(2) 0.8281(3)
C6A C 0.6961(2) 0.5080(3) 0.8281(3)
C7B C -0.1572(2) 0.0430(2) 0.7467(3)
C7C C 0.0430(2) 0.6572(2) 0.7467(3)
C7A C 0.6572(2) 0.4570(2) 0.7467(3)
C8B C 0.0830(2) 0.0013(2) 0.7716(2)
C8C C 0.0013(2) 0.4170(2) 0.7716(2)
C8A C 0.4170(2) 0.4987(2) 0.7716(2)
C9B C -0.0144(2) -0.0013(2) 0.7984(2)
C9C C -0.0013(2) 0.5144(2) 0.7984(2)
C9A C 0.5144(2) 0.5013(2) 0.7984(2)
C10B C -0.0144(2) 0.1319(2) 0.4717(3)
C10C C 0.1319(2) 0.5144(2) 0.4717(3)
C10A C 0.5144(2) 0.3681(2) 0.4717(3)
H1B H -0.0101 -0.0847 0.9300
H1C H -0.0847 0.5101 0.9300
H1A H 0.5101 0.5847 0.9300
H2B H -0.1671 -0.0917 0.9540
H2C H -0.0917 0.6671 0.9540
H2A H 0.6671 0.5917 0.9540
H3B H -0.2597 -0.0097 0.8362
H3C H -0.0097 0.7597 0.8362
H3A H 0.7597 0.5097 0.8362
H4A H 0.5845 0.1345 0.8851
H4B H -0.0845 0.3655 0.8851
H4C H 0.3655 0.5845 0.8851
H5B H 0.2048 0.0920 0.5936
H5C H 0.0920 0.2952 0.5936
H5A H 0.2952 0.4080 0.5936
H6B H -0.1951 0.0770 0.6999
H6C H 0.0770 0.6951 0.6999
H6A H 0.6951 0.4230 0.6999
H7A H 0.5824 0.2797 0.8141
H7B H -0.0824 0.2203 0.8141
H7C H 0.2203 0.5824 0.8141
P1 P 0.7500 0.2500 1.0000
F1 F 0.7500 0.2500 0.8703(2)
F2 F 0.8519(1) 0.2131(1) 0.9995(2)
F1E F 0.7500 0.2500 1.1297(2)
F2E F 0.7131(1) 0.1481(1) 1.0005(2)
F2F F 0.7869(1) 0.3519(1) 1.0005(2)
F2C F 0.6481(1) 0.2869(1) 0.9995(2)
P2 P 0.7500 0.2500 0.5000
F3 F 0.7500 0.2500 0.6281(3)
F4 F 0.7143(1) 0.3516(1) 0.5005(2)
F3E F 0.7500 0.2500 0.3719(3)
F4E F 0.8516(1) 0.2857(1) 0.4995(2)
F4F F 0.6484(1) 0.2143(1) 0.4995(2)
F4C F 0.7857(1) 0.1484(1) 0.5005(2)
P3 P 0.2500 0.2500 0.8802(1)
F5 F 0.2500 0.2500 1.0100(3)
F6 F 0.2045(2) 0.3471(2) 0.8813(2)
F7 F 0.2500 0.2500 0.7511(4)
F6A F 0.1529(2) 0.2045(2) 0.8813(2)
F6B F 0.3471(2) 0.2955(2) 0.8813(2)
F6C F 0.2955(2) 0.1529(2) 0.8813(2)
P4 P 0.2500 0.2500 0.3925(2)
F8 F 0.2500 0.2500 0.5240(4)
F9 F 0.3456(2) 0.2032(2) 0.3971(3)
F10 F 0.2500 0.2500 0.2682(5)
F9A F 0.2968(2) 0.3456(2) 0.3971(3)
F9B F 0.2032(2) 0.1544(2) 0.3971(3)
F9C F 0.1544(2) 0.2968(2) 0.3971(3)
loop_
_geom_bond_atom_site_label_1
_geom_bond_atom_site_label_2
_geom_bond_site_symmetry_1
_geom_bond_site_symmetry_2
Cu1 N1 1_555 1_555
P1 F1 1_555 1_555
P2 F3 1_555 1_555
P3 F5 1_555 1_555
P4 F8 1_555 1_555
F2 P1 1_555 1_555
F4 P2 1_555 1_555
F6 P3 1_555 1_555
F7 P3 1_555 1_555
F9 P4 1_555 1_555
F10 P4 1_555 1_555
O1 C10 1_555 1_555
N1 C1 1_555 1_555
N2 Cu1 1_555 1_555
N3 Cu1 1_555 1_555
C1 H5 1_555 1_555
C2 N3 1_555 1_555
C3 C2 1_555 1_555
C4 C5 1_555 1_555
C5 C6 1_555 1_555
C6 C7 1_555 1_555
C7 N2 1_555 1_555
C8 N1 1_555 1_555
C9 N2 1_555 1_555
C10 Cu1 1_555 1_555
H1 C4 1_555 1_555
H2 C5 1_555 1_555
H3 C6 1_555 1_555
H4 C3 1_555 1_555
H6 C7 1_555 1_555
H7 C2 1_555 1_555
Cu1A N1A 1_555 1_555
Cu1C N1C 1_555 1_555
Cu1B N1B 1_555 1_555
F1E P1 1_555 1_555
F2E P1 1_555 1_555
F2F P1 1_555 1_555
F2C P1 1_555 1_555
F3E P2 1_555 1_555
F4E P2 1_555 1_555
F4F P2 1_555 1_555
F4C P2 1_555 1_555
F6A P3 1_555 1_555
F6B P3 1_555 1_555
F6C P3 1_555 1_555
F9A P4 1_555 1_555
F9B P4 1_555 1_555
F9C P4 1_555 1_555
O1B C10B 1_555 1_555
O1C C10C 1_555 1_555
O1A C10A 1_555 1_555
N1A C1A 1_555 1_555
N1C C1C 1_555 1_555
N1B C1B 1_555 1_555
N2B Cu1B 1_555 1_555
N2C Cu1C 1_555 1_555
N2A Cu1A 1_555 1_555
N3A C1 1_555 1_555
N3C Cu1C 1_555 1_555
N3B Cu1B 1_555 1_555
C1A N3C 1_555 1_555
C1C N3B 1_555 1_555
C1B N3 1_555 1_555
C2A N3A 1_555 1_555
C2B N3B 1_555 1_555
C2C N3C 1_555 1_555
C3A C8 1_555 1_555
C3B C2B 1_555 1_555
C3C C2C 1_555 1_555
C4B C5B 1_555 1_555
C4C C5C 1_555 1_555
C4A C5A 1_555 1_555
C5B C6B 1_555 1_555
C5C C6C 1_555 1_555
C5A C6A 1_555 1_555
C6B C7B 1_555 1_555
C6C C7C 1_555 1_555
C6A C7A 1_555 1_555
C7B N2B 1_555 1_555
C7C N2C 1_555 1_555
C7A N2A 1_555 1_555
C8B C3 1_555 1_555
C8C N1C 1_555 1_555
C8A N1A 1_555 1_555
C9B N2B 1_555 1_555
C9C N2C 1_555 1_555
C9A N2A 1_555 1_555
C10B Cu1B 1_555 1_555
C10C Cu1C 1_555 1_555
C10A Cu1A 1_555 1_555
H1B C4B 1_555 1_555
H1C C4C 1_555 1_555
H1A C4A 1_555 1_555
H2B C5B 1_555 1_555
H2C C5C 1_555 1_555
H2A C5A 1_555 1_555
H3B C6B 1_555 1_555
H3C C6C 1_555 1_555
H3A C6A 1_555 1_555
H4A C3A 1_555 1_555
H4B C3B 1_555 1_555
H4C C3C 1_555 1_555
H5B C1B 1_555 1_555
H5C C1C 1_555 1_555
H5A C1A 1_555 1_555
H6B C7B 1_555 1_555
H6C C7C 1_555 1_555
H6A C7A 1_555 1_555
H7A C2A 1_555 1_555
H7B C2B 1_555 1_555
H7C C2C 1_555 1_555
C4 C9 1_555 1_555
C8 C9 1_555 1_555
Cu1A N3A 1_555 1_555
N1B C8B 1_555 1_555
C2A C3A 1_555 1_555
C3B C8C 1_555 1_555
C3C C8A 1_555 1_555
C4B C9B 1_555 1_555
C4C C9C 1_555 1_555
C4A C9A 1_555 1_555
C8B C9B 1_555 1_555
C8C C9C 1_555 1_555
C8A C9A 1_555 1_555

#END
