
#######################################################################
#
#                 Cambridge Crystallographic Data Centre
#                                CCDC 
#
#######################################################################
#
# If this CIF has been generated from an entry in the Cambridge 
# Structural Database, then it will include bibliographic, chemical, 
# crystal, experimental, refinement or atomic coordinate data resulting 
# from the CCDC's data processing and validation procedures.
#
#######################################################################

data_CUPTEO
_chemical_formula_moiety         'C80 H52 N24 O20 S4 Zn4'
_chemical_name_systematic        
tetrakis(\m~2~-3,5-bis(Oxy(pyridin-2-ylmethylene)carbonohydrazonoyl)benzenesulfonate)-tetra-zinc
_symmetry_cell_setting           tetragonal
_symmetry_space_group_name_H-M   'I 41/a'
_symmetry_Int_Tables_number      88
_space_group_name_Hall           '-I 4ad'
loop_
_symmetry_equiv_pos_site_id
_symmetry_equiv_pos_as_xyz
1 x,y,z
2 -x,1/2-y,z
3 3/4-y,1/4+x,1/4+z
4 1/4+y,1/4-x,1/4+z
5 1/2+x,1/2+y,1/2+z
6 1/2-x,-y,1/2+z
7 1/4-y,3/4+x,3/4+z
8 3/4+y,3/4-x,3/4+z
9 -x,-y,-z
10 x,1/2+y,-z
11 1/4+y,3/4-x,3/4-z
12 3/4-y,3/4+x,3/4-z
13 1/2-x,1/2-y,1/2-z
14 1/2+x,y,1/2-z
15 3/4+y,1/4-x,1/4-z
16 1/4-y,1/4+x,1/4-z
_cell_length_a                   16.4641(5)
_cell_length_b                   16.4641(5)
_cell_length_c                   53.397(2)
_cell_angle_alpha                90
_cell_angle_beta                 90
_cell_angle_gamma                90
_cell_volume                     14474.1
_cell_formula_units_Z            4
loop_
_atom_site_label
_atom_site_type_symbol
_atom_site_fract_x
_atom_site_fract_y
_atom_site_fract_z
Zn1 Zn 0.31631(3) 0.55266(3) 0.36388(2)
N1 N 0.3459(2) 0.6847(2) 0.35965(8)
C1 C 0.3488(4) 0.7293(4) 0.33838(12)
H1 H 0.3321 0.7052 0.3231
C2 C 0.3756(5) 0.8097(4) 0.33834(14)
H2 H 0.3760 0.8410 0.3234
C3 C 0.4018(7) 0.8427(4) 0.36102(14)
H3 H 0.4240 0.8960 0.3614
C4 C 0.3956(5) 0.7984(3) 0.38282(13)
H4 H 0.4091 0.8220 0.3985
C5 C 0.3689(3) 0.7183(3) 0.38132(10)
C6 C 0.3641(3) 0.6672(3) 0.40327(10)
H5 H 0.3766 0.6871 0.4195
N2 N 0.3421(2) 0.5932(2) 0.39960(8)
C7 C 0.3152(3) 0.4670(3) 0.41035(10)
C8 C 0.2492(3) 0.1787(3) 0.42320(9)
C9 C 0.2201(4) -0.0230(3) 0.43284(10)
H6 H 0.2298 -0.0333 0.4501
C10 C 0.1990(4) -0.0873(3) 0.41560(10)
C11 C 0.1916(5) -0.1683(3) 0.42339(12)
H7 H 0.1987 -0.1825 0.4405
C12 C 0.1741(5) -0.2265(3) 0.40591(12)
H8 H 0.1686 -0.2817 0.4108
C13 C 0.1643(4) -0.2048(3) 0.38085(12)
H9 H 0.1533 -0.2448 0.3685
C14 C 0.1709(3) -0.1232(3) 0.37442(11)
H10 H 0.1636 -0.1076 0.3574
N3 N 0.3371(3) 0.5405(2) 0.41937(8)
N4 N 0.2465(3) 0.1151(2) 0.43808(8)
N5 N 0.2248(3) 0.0489(2) 0.42350(8)
N6 N 0.1875(2) -0.0659(2) 0.39169(8)
O1 O 0.3024(2) 0.45131(18) 0.38722(6)
O2 O 0.2354(2) 0.17959(19) 0.39987(6)
C15 C 0.3034(3) 0.4008(2) 0.42877(8)
C16 C 0.2716(3) 0.2593(2) 0.43521(8)
C17 C 0.3105(5) 0.4115(5) 0.45454(13)
H11 H 0.3240 0.4633 0.4611
C18 C 0.2980(6) 0.3458(5) 0.47074(14)
C19 C 0.2784(11) 0.2701(6) 0.46106(13)
H12 H 0.2695 0.2256 0.4720
C20 C 0.2837(10) 0.3247(4) 0.41917(13)
H13 H 0.2786 0.3174 0.4016
S1 S 0.3065(5) 0.3599(4) 0.50362(16)
O3 O 0.3485(8) 0.4363(6) 0.5068(2)
O4 O 0.3495(8) 0.2906(4) 0.51351(14)
O5 O 0.2214(6) 0.3591(8) 0.51222(18)
Zn1J Zn 0.80266(3) 0.43369(3) 0.38612(2)
N1J N 0.9347(2) 0.4041(2) 0.39035(8)
C1J C 0.9793(4) 0.4012(4) 0.41162(12)
H1J H 0.9552 0.4179 0.4269
C2J C 1.0597(4) 0.3744(5) 0.41166(14)
H2J H 1.0910 0.3740 0.4266
C3J C 1.0927(4) 0.3482(7) 0.38898(14)
H3J H 1.1460 0.3260 0.3886
C4J C 1.0484(3) 0.3544(5) 0.36718(13)
H4J H 1.0720 0.3409 0.3515
C5J C 0.9683(3) 0.3811(3) 0.36868(10)
C6J C 0.9172(3) 0.3859(3) 0.34673(10)
H5J H 0.9371 0.3734 0.3305
N2J N 0.8432(2) 0.4079(2) 0.35040(8)
C7J C 0.7170(3) 0.4348(3) 0.33965(10)
C8J C 0.4287(3) 0.5008(3) 0.32680(9)
C9J C 0.2270(3) 0.5299(4) 0.31716(10)
H6J H 0.2167 0.5202 0.2999
C10J C 0.1627(3) 0.5510(4) 0.33440(10)
C11J C 0.0817(3) 0.5584(5) 0.32661(12)
H7J H 0.0675 0.5513 0.3095
C12J C 0.0235(3) 0.5759(5) 0.34409(12)
H8J H -0.0317 0.5814 0.3392
C13J C 0.0452(3) 0.5857(4) 0.36915(12)
H9J H 0.0052 0.5967 0.3815
C14J C 0.1268(3) 0.5791(3) 0.37558(11)
H10J H 0.1424 0.5864 0.3926
N3J N 0.7905(2) 0.4129(3) 0.33063(8)
N4J N 0.3651(2) 0.5035(3) 0.31192(8)
N5J N 0.2989(2) 0.5252(3) 0.32650(8)
N6J N 0.1841(2) 0.5625(2) 0.35831(8)
O1J O 0.70131(18) 0.4476(2) 0.36278(6)
O2J O 0.42959(19) 0.5146(2) 0.35013(6)
C15J C 0.6508(2) 0.4466(3) 0.32123(8)
C16J C 0.5093(2) 0.4784(3) 0.31479(8)
C17J C 0.6615(5) 0.4395(5) 0.29546(13)
H11J H 0.7133 0.4260 0.2889
C18J C 0.5958(5) 0.4520(6) 0.27926(14)
C19J C 0.5201(6) 0.4716(11) 0.28894(13)
H12J H 0.4756 0.4805 0.2780
C20J C 0.5747(4) 0.4663(10) 0.33083(13)
H13J H 0.5674 0.4714 0.3484
S1J S 0.6099(4) 0.4435(5) 0.24638(16)
O3J O 0.6863(6) 0.4015(8) 0.2432(2)
O4J O 0.5406(4) 0.4005(8) 0.23649(14)
O5J O 0.6091(8) 0.5286(6) 0.23778(18)
Zn1K Zn 0.19734(3) 0.06631(3) 0.38612(2)
N1K N 0.0653(2) 0.0959(2) 0.39035(8)
C1K C 0.0207(4) 0.0988(4) 0.41162(12)
H1K H 0.0448 0.0821 0.4269
C2K C -0.0597(4) 0.1256(5) 0.41166(14)
H2K H -0.0910 0.1260 0.4266
C3K C -0.0927(4) 0.1518(7) 0.38898(14)
H3K H -0.1460 0.1740 0.3886
C4K C -0.0484(3) 0.1456(5) 0.36718(13)
H4K H -0.0720 0.1591 0.3515
C5K C 0.0317(3) 0.1189(3) 0.36868(10)
C6K C 0.0828(3) 0.1141(3) 0.34673(10)
H5K H 0.0629 0.1266 0.3305
N2K N 0.1568(2) 0.0921(2) 0.35040(8)
C7K C 0.2830(3) 0.0652(3) 0.33965(10)
C8K C 0.5713(3) -0.0008(3) 0.32680(9)
C9K C 0.7730(3) -0.0299(4) 0.31716(10)
H6K H 0.7833 -0.0202 0.2999
C10K C 0.8373(3) -0.0510(4) 0.33440(10)
C11K C 0.9183(3) -0.0584(5) 0.32661(12)
H7K H 0.9325 -0.0513 0.3095
C12K C 0.9765(3) -0.0759(5) 0.34409(12)
H8K H 1.0317 -0.0814 0.3392
C13K C 0.9548(3) -0.0857(4) 0.36915(12)
H9K H 0.9948 -0.0967 0.3815
C14K C 0.8732(3) -0.0791(3) 0.37558(11)
H10K H 0.8576 -0.0864 0.3926
N3K N 0.2095(2) 0.0871(3) 0.33063(8)
N4K N 0.6349(2) -0.0035(3) 0.31192(8)
N5K N 0.7011(2) -0.0252(3) 0.32650(8)
N6K N 0.8159(2) -0.0625(2) 0.35831(8)
O1K O 0.29869(18) 0.0524(2) 0.36278(6)
O2K O 0.57041(19) -0.0146(2) 0.35013(6)
C15K C 0.3492(2) 0.0534(3) 0.32123(8)
C16K C 0.4907(2) 0.0216(3) 0.31479(8)
C17K C 0.3385(5) 0.0605(5) 0.29546(13)
H11K H 0.2867 0.0740 0.2889
C18K C 0.4042(5) 0.0480(6) 0.27926(14)
C19K C 0.4799(6) 0.0284(11) 0.28894(13)
H12K H 0.5244 0.0195 0.2780
C20K C 0.4253(4) 0.0337(10) 0.33083(13)
H13K H 0.4326 0.0286 0.3484
S1K S 0.3901(4) 0.0565(5) 0.24638(16)
O3K O 0.3137(6) 0.0985(8) 0.2432(2)
O4K O 0.4594(4) 0.0995(8) 0.23649(14)
O5K O 0.3909(8) -0.0286(6) 0.23778(18)
Zn1A Zn 0.68369(3) -0.05266(3) 0.36388(2)
N1A N 0.6541(2) -0.1847(2) 0.35965(8)
C1A C 0.6512(4) -0.2293(4) 0.33838(12)
H1A H 0.6679 -0.2052 0.3231
C2A C 0.6244(5) -0.3097(4) 0.33834(14)
H2A H 0.6240 -0.3410 0.3234
C3A C 0.5982(7) -0.3427(4) 0.36102(14)
H3A H 0.5760 -0.3960 0.3614
C4A C 0.6044(5) -0.2984(3) 0.38282(13)
H4A H 0.5909 -0.3220 0.3985
C5A C 0.6311(3) -0.2183(3) 0.38132(10)
C6A C 0.6359(3) -0.1672(3) 0.40327(10)
H5A H 0.6234 -0.1871 0.4195
N2A N 0.6579(2) -0.0932(2) 0.39960(8)
C7A C 0.6848(3) 0.0330(3) 0.41035(10)
C8A C 0.7508(3) 0.3213(3) 0.42320(9)
C9A C 0.7799(4) 0.5230(3) 0.43284(10)
H6A H 0.7702 0.5333 0.4501
C10A C 0.8010(4) 0.5873(3) 0.41560(10)
C11A C 0.8084(5) 0.6683(3) 0.42339(12)
H7A H 0.8013 0.6825 0.4405
C12A C 0.8259(5) 0.7265(3) 0.40591(12)
H8A H 0.8314 0.7817 0.4108
C13A C 0.8357(4) 0.7048(3) 0.38085(12)
H9A H 0.8467 0.7448 0.3685
C14A C 0.8291(3) 0.6232(3) 0.37442(11)
H10A H 0.8364 0.6076 0.3574
N3A N 0.6629(3) -0.0405(2) 0.41937(8)
N4A N 0.7535(3) 0.3849(2) 0.43808(8)
N5A N 0.7752(3) 0.4511(2) 0.42350(8)
N6A N 0.8125(2) 0.5659(2) 0.39169(8)
O1A O 0.6976(2) 0.04869(18) 0.38722(6)
O2A O 0.7646(2) 0.32041(19) 0.39987(6)
C15A C 0.6966(3) 0.0992(2) 0.42877(8)
C16A C 0.7284(3) 0.2407(2) 0.43521(8)
C17A C 0.6895(5) 0.0885(5) 0.45454(13)
H11A H 0.6760 0.0367 0.4611
C18A C 0.7020(6) 0.1542(5) 0.47074(14)
C19A C 0.7216(11) 0.2299(6) 0.46106(13)
H12A H 0.7305 0.2744 0.4720
C20A C 0.7163(10) 0.1753(4) 0.41917(13)
H13A H 0.7214 0.1826 0.4016
S1A S 0.6935(5) 0.1401(4) 0.50362(16)
O3A O 0.6515(8) 0.0637(6) 0.5068(2)
O4A O 0.6505(8) 0.2094(4) 0.51351(14)
O5A O 0.7786(6) 0.1409(8) 0.51222(18)
C21? C 0.3016(7) 0.4133(8) 0.45453(17)
H14? H 0.3118 0.4658 0.4612
C22? C 0.2847(10) 0.3484(8) 0.47049(18)
C23? C 0.2694(19) 0.2716(9) 0.46097(17)
H15? H 0.2574 0.2278 0.4719
C24? C 0.2873(18) 0.3238(6) 0.41907(18)
H16? H 0.2870 0.3154 0.4015
S2? S 0.2808(9) 0.3650(7) 0.5018(3)
O6? O 0.2770(14) 0.2878(7) 0.5150(2)
O7? O 0.2065(9) 0.4122(11) 0.5064(3)
O8? O 0.3519(12) 0.4132(12) 0.5089(4)
loop_
_geom_bond_atom_site_label_1
_geom_bond_atom_site_label_2
_geom_bond_site_symmetry_1
_geom_bond_site_symmetry_2
Zn1 N1 1_555 1_555
N1 C1 1_555 1_555
C1 H1 1_555 1_555
C2 C1 1_555 1_555
H2 C2 1_555 1_555
C3 C2 1_555 1_555
H3 C3 1_555 1_555
C4 C3 1_555 1_555
H4 C4 1_555 1_555
C5 N1 1_555 1_555
C6 C5 1_555 1_555
H5 C6 1_555 1_555
N2 Zn1 1_555 1_555
C7 N3 1_555 1_555
C8 N4 1_555 1_555
C9 H6 1_555 1_555
C10 C9 1_555 1_555
C11 C10 1_555 1_555
H7 C11 1_555 1_555
C12 C11 1_555 1_555
H8 C12 1_555 1_555
C13 C12 1_555 1_555
H9 C13 1_555 1_555
C14 C13 1_555 1_555
H10 C14 1_555 1_555
N3 N2 1_555 1_555
N4 N5 1_555 1_555
N5 C9 1_555 1_555
N6 C10 1_555 1_555
O1 Zn1 1_555 1_555
O2 C8 1_555 1_555
C15 C7 1_555 1_555
C16 C8 1_555 1_555
C17 C15 1_555 1_555
H11 C17 1_555 1_555
C18 C17 1_555 1_555
C19 C16 1_555 1_555
H12 C19 1_555 1_555
C20 C15 1_555 1_555
H13 C20 1_555 1_555
S1 C18 1_555 1_555
O3 S1 1_555 1_555
O4 S1 1_555 1_555
O5 S1 1_555 1_555
Zn1J N1J 1_555 1_555
N1J C1J 1_555 1_555
C1J H1J 1_555 1_555
C2J C1J 1_555 1_555
H2J C2J 1_555 1_555
C3J C2J 1_555 1_555
H3J C3J 1_555 1_555
C4J C3J 1_555 1_555
H4J C4J 1_555 1_555
C5J N1J 1_555 1_555
C6J C5J 1_555 1_555
H5J C6J 1_555 1_555
N2J Zn1J 1_555 1_555
C7J N3J 1_555 1_555
C8J N4J 1_555 1_555
C9J H6J 1_555 1_555
C10J C9J 1_555 1_555
C11J C10J 1_555 1_555
H7J C11J 1_555 1_555
C12J C11J 1_555 1_555
H8J C12J 1_555 1_555
C13J C12J 1_555 1_555
H9J C13J 1_555 1_555
C14J C13J 1_555 1_555
H10J C14J 1_555 1_555
N3J N2J 1_555 1_555
N4J N5J 1_555 1_555
N5J Zn1 1_555 1_555
N6J Zn1 1_555 1_555
O1J Zn1J 1_555 1_555
O2J Zn1 1_555 1_555
C15J C7J 1_555 1_555
C16J C8J 1_555 1_555
C17J C15J 1_555 1_555
H11J C17J 1_555 1_555
C18J C17J 1_555 1_555
C19J C16J 1_555 1_555
H12J C19J 1_555 1_555
C20J C15J 1_555 1_555
H13J C20J 1_555 1_555
S1J C18J 1_555 1_555
O3J S1J 1_555 1_555
O4J S1J 1_555 1_555
O5J S1J 1_555 1_555
Zn1K N5 1_555 1_555
N1K Zn1K 1_555 1_555
C1K N1K 1_555 1_555
H1K C1K 1_555 1_555
C2K C1K 1_555 1_555
H2K C2K 1_555 1_555
C3K C2K 1_555 1_555
H3K C3K 1_555 1_555
C4K C3K 1_555 1_555
H4K C4K 1_555 1_555
C5K N1K 1_555 1_555
C6K C5K 1_555 1_555
H5K C6K 1_555 1_555
N2K Zn1K 1_555 1_555
C7K N3K 1_555 1_555
C8K N4K 1_555 1_555
C9K H6K 1_555 1_555
C10K C9K 1_555 1_555
C11K C10K 1_555 1_555
H7K C11K 1_555 1_555
C12K C11K 1_555 1_555
H8K C12K 1_555 1_555
C13K C12K 1_555 1_555
H9K C13K 1_555 1_555
C14K C13K 1_555 1_555
H10K C14K 1_555 1_555
N3K N2K 1_555 1_555
N4K N5K 1_555 1_555
N5K C9K 1_555 1_555
N6K C10K 1_555 1_555
O1K Zn1K 1_555 1_555
O2K C8K 1_555 1_555
C15K C7K 1_555 1_555
C16K C8K 1_555 1_555
C17K C15K 1_555 1_555
H11K C17K 1_555 1_555
C18K C17K 1_555 1_555
C19K C16K 1_555 1_555
H12K C19K 1_555 1_555
C20K C15K 1_555 1_555
H13K C20K 1_555 1_555
S1K C18K 1_555 1_555
O3K S1K 1_555 1_555
O4K S1K 1_555 1_555
O5K S1K 1_555 1_555
Zn1A N5K 1_555 1_555
N1A Zn1A 1_555 1_555
C1A N1A 1_555 1_555
H1A C1A 1_555 1_555
C2A C1A 1_555 1_555
H2A C2A 1_555 1_555
C3A C2A 1_555 1_555
H3A C3A 1_555 1_555
C4A C3A 1_555 1_555
H4A C4A 1_555 1_555
C5A N1A 1_555 1_555
C6A C5A 1_555 1_555
H5A C6A 1_555 1_555
N2A Zn1A 1_555 1_555
C7A N3A 1_555 1_555
C8A N4A 1_555 1_555
C9A H6A 1_555 1_555
C10A C9A 1_555 1_555
C11A C10A 1_555 1_555
H7A C11A 1_555 1_555
C12A C11A 1_555 1_555
H8A C12A 1_555 1_555
C13A C12A 1_555 1_555
H9A C13A 1_555 1_555
C14A C13A 1_555 1_555
H10A C14A 1_555 1_555
N3A N2A 1_555 1_555
N4A N5A 1_555 1_555
N5A Zn1J 1_555 1_555
N6A Zn1J 1_555 1_555
O1A Zn1A 1_555 1_555
O2A Zn1J 1_555 1_555
C15A C7A 1_555 1_555
C16A C8A 1_555 1_555
C17A C15A 1_555 1_555
H11A C17A 1_555 1_555
C18A C17A 1_555 1_555
C19A C16A 1_555 1_555
H12A C19A 1_555 1_555
C20A C15A 1_555 1_555
H13A C20A 1_555 1_555
S1A C18A 1_555 1_555
O3A S1A 1_555 1_555
O4A S1A 1_555 1_555
O5A S1A 1_555 1_555
C4 C5 1_555 1_555
C6 N2 1_555 1_555
C7 O1 1_555 1_555
C14 N6 1_555 1_555
N6 Zn1K 1_555 1_555
O2 Zn1K 1_555 1_555
C16 C20 1_555 1_555
C18 C19 1_555 1_555
C4J C5J 1_555 1_555
C6J N2J 1_555 1_555
C7J O1J 1_555 1_555
C8J O2J 1_555 1_555
C9J N5J 1_555 1_555
C10J N6J 1_555 1_555
C14J N6J 1_555 1_555
C16J C20J 1_555 1_555
C18J C19J 1_555 1_555
C4K C5K 1_555 1_555
C6K N2K 1_555 1_555
C7K O1K 1_555 1_555
C14K N6K 1_555 1_555
N6K Zn1A 1_555 1_555
O2K Zn1A 1_555 1_555
C16K C20K 1_555 1_555
C18K C19K 1_555 1_555
C4A C5A 1_555 1_555
C6A N2A 1_555 1_555
C7A O1A 1_555 1_555
C8A O2A 1_555 1_555
C9A N5A 1_555 1_555
C10A N6A 1_555 1_555
C14A N6A 1_555 1_555
C16A C20A 1_555 1_555
C18A C19A 1_555 1_555

#END
