
#######################################################################
#
#                 Cambridge Crystallographic Data Centre
#                                CCDC 
#
#######################################################################
#
# If this CIF has been generated from an entry in the Cambridge 
# Structural Database, then it will include bibliographic, chemical, 
# crystal, experimental, refinement or atomic coordinate data resulting 
# from the CCDC's data processing and validation procedures.
#
#######################################################################

data_DAKKOQ
_chemical_formula_moiety         
'C60 H24 N24 Ni8 O48 8-,4(C13 H28 N2 2+),4(C3 H7 N1 O1),4(C2 H6 O1),6(H2 O1)'
_chemical_name_systematic        
'tetrakis(4,4-Trimethylenedipiperidinium) dodecakis(\m~2~-4-carboxyimidazole-5-carboxylato)-octa-nickel(ii) dimethylformamide ethanol solvate hexahydrate'
_symmetry_cell_setting           monoclinic
_symmetry_space_group_name_H-M   'P 21/c'
_symmetry_Int_Tables_number      14
_space_group_name_Hall           '-P 2ybc'
loop_
_symmetry_equiv_pos_site_id
_symmetry_equiv_pos_as_xyz
1 x,y,z
2 -x,1/2+y,1/2-z
3 -x,-y,-z
4 x,1/2-y,1/2+z
_cell_length_a                   16.0856(15)
_cell_length_b                   28.306(3)
_cell_length_c                   21.617(2)
_cell_angle_alpha                90
_cell_angle_beta                 102.189(2)
_cell_angle_gamma                90
_cell_volume                     9620.74
_exptl_crystal_colour            blue
_exptl_crystal_description       cube
_cell_formula_units_Z            2
loop_
_atom_site_label
_atom_site_type_symbol
_atom_site_fract_x
_atom_site_fract_y
_atom_site_fract_z
Ni1 Ni 0.43028(6) 0.14247(2) 0.33454(4)
Ni2 Ni 0.40860(6) -0.07332(3) 0.25781(4)
Ni3 Ni 0.23657(5) 0.10348(3) 0.55468(4)
Ni4 Ni 0.21641(6) -0.11284(3) 0.47819(4)
O1 O 0.1910(3) -0.18037(16) 0.4315(2)
O2 O 0.2152(4) -0.21868(16) 0.3461(3)
H1 H 0.2501 -0.2098 0.3009
O3 O 0.3710(3) -0.14395(15) 0.2319(2)
O4 O 0.2915(4) -0.20221(16) 0.2582(2)
N1 N 0.2673(3) -0.10041(16) 0.4007(2)
N2 N 0.3362(3) -0.08614(17) 0.3225(2)
C1 C 0.2207(5) -0.1817(2) 0.3830(4)
C2 C 0.2646(4) -0.1400(2) 0.3644(3)
C3 C 0.3110(4) -0.0689(2) 0.3733(3)
H2 H 0.3227 -0.0376 0.3884
C4 C 0.3050(4) -0.1314(2) 0.3171(3)
C5 C 0.3244(5) -0.1620(2) 0.2661(3)
O5 O 0.3033(3) -0.04871(16) 0.1864(2)
O6 O 0.2331(4) 0.01694(19) 0.1532(2)
H3 H 0.2378 0.0600 0.1663
O7 O 0.3244(3) 0.14775(14) 0.2594(2)
O8 O 0.2440(4) 0.10381(17) 0.1829(2)
N3 N 0.4201(3) -0.00195(17) 0.2740(2)
N4 N 0.4277(3) 0.07417(17) 0.3030(2)
C6 C 0.2943(5) -0.0050(2) 0.1893(3)
C7 C 0.3552(4) 0.0212(2) 0.2363(3)
C8 C 0.4617(4) 0.03047(19) 0.3136(3)
H4 H 0.5102 0.0236 0.3458
C9 C 0.3594(5) 0.0681(2) 0.2540(3)
C10 C 0.3055(5) 0.1091(2) 0.2302(3)
O9 O 0.4040(3) 0.21441(14) 0.3526(2)
O10 O 0.3337(3) 0.25682(13) 0.4128(2)
O11 O 0.2250(3) 0.17971(16) 0.5530(2)
O12 O 0.2538(3) 0.24201(15) 0.4983(2)
H5 H 0.2871 0.2502 0.4522
N5 N 0.3604(3) 0.13183(16) 0.4017(2)
N6 N 0.2902(3) 0.11790(16) 0.4791(2)
C11 C 0.3601(5) 0.2177(2) 0.3942(3)
C12 C 0.3359(4) 0.1741(2) 0.4220(3)
C13 C 0.3314(4) 0.09885(19) 0.4375(3)
H6 H 0.3395 0.0658 0.4335
C14 C 0.2932(4) 0.1660(2) 0.4701(3)
C15 C 0.2557(4) 0.1965(2) 0.5095(3)
O13 O 0.1095(3) 0.10356(15) 0.5022(2)
O14 O 0.0139(3) 0.05516(16) 0.4453(2)
O15 O 0.0903(3) -0.09373(15) 0.4322(2)
O16 O 0.0059(3) -0.03014(16) 0.4135(2)
N7 N 0.2234(3) 0.03268(18) 0.5359(2)
N8 N 0.2170(3) -0.04425(18) 0.5074(2)
C16 C 0.0862(5) 0.0628(2) 0.4812(3)
C17 C 0.1460(4) 0.0241(2) 0.4979(3)
C18 C 0.2638(4) -0.0091(2) 0.5393(3)
H7 H 0.3206 -0.0135 0.5622
C19 C 0.1421(4) -0.0236(2) 0.4811(3)
C20 C 0.0754(5) -0.0511(3) 0.4390(3)
O17 O 0.1677(3) -0.14045(17) 0.5538(2)
O18 O 0.2114(3) -0.16656(19) 0.6533(2)
O19 O 0.6461(4) 0.17599(18) 0.2694(2)
H8 H 0.7163 0.1726 0.3071
O20 O 0.5089(3) 0.16581(15) 0.2717(2)
N9 N 0.3292(4) -0.13079(17) 0.5371(2)
N10 N 0.5457(3) 0.14023(15) 0.3948(2)
C21 C 0.2248(5) -0.1515(3) 0.6015(4)
C22 C 0.3145(5) -0.1452(2) 0.5936(3)
C23 C 0.4128(4) -0.12856(18) 0.5464(3)
H9 H 0.4415 -0.1194 0.5141
C24 C 0.6091(5) 0.1509(2) 0.3645(3)
C25 C 0.5853(5) 0.1646(2) 0.2982(3)
O21 O 0.1904(3) 0.09989(16) 0.6399(2)
O22 O 0.2364(3) 0.08921(19) 0.7444(2)
H10 H 0.3067 0.0840 0.7817
O23 O 0.4844(4) -0.07360(16) 0.1885(2)
O24 O 0.6207(4) -0.07712(18) 0.1812(2)
N11 N 0.3501(3) 0.09970(17) 0.6181(2)
N12 N 0.5239(3) -0.09003(16) 0.3155(2)
C26 C 0.2481(5) 0.0944(2) 0.6875(3)
C27 C 0.3363(5) 0.0933(2) 0.6783(3)
C28 C 0.4351(4) 0.09737(19) 0.6251(3)
H11 H 0.4632 0.1007 0.5908
C29 C 0.5859(4) -0.0876(2) 0.2812(3)
C30 C 0.5618(6) -0.0777(2) 0.2122(3)
C23B C 0.5872(4) 0.12856(18) 0.4536(3)
N9B N 0.6708(4) 0.13079(17) 0.4629(2)
Ni4B Ni 0.78359(6) 0.11284(3) 0.52181(4)
O1B O 0.8090(3) 0.18037(16) 0.5685(2)
C1B C 0.7793(5) 0.1817(2) 0.6170(4)
O2B O 0.7848(4) 0.21868(16) 0.6539(3)
H1B H 0.7499 0.2098 0.6991
C2B C 0.7354(4) 0.1400(2) 0.6356(3)
N1B N 0.7327(3) 0.10041(16) 0.5993(2)
O15B O 0.9097(3) 0.09373(15) 0.5678(2)
C20B C 0.9246(5) 0.0511(3) 0.5610(3)
O16B O 0.9941(3) 0.03014(16) 0.5865(2)
C19B C 0.8579(4) 0.0236(2) 0.5189(3)
N8B N 0.7830(3) 0.04425(18) 0.4926(2)
O17B O 0.8323(3) 0.14045(17) 0.4462(2)
C21B C 0.7752(5) 0.1515(3) 0.3985(4)
O18B O 0.7886(3) 0.16656(19) 0.3467(2)
C22B C 0.6855(5) 0.1452(2) 0.4064(3)
C18B C 0.7362(4) 0.0091(2) 0.4607(3)
N7B N 0.7766(3) -0.03268(18) 0.4641(2)
Ni3B Ni 0.76343(5) -0.10348(3) 0.44532(4)
O11B O 0.7750(3) -0.17971(16) 0.4470(2)
C15B C 0.7443(4) -0.1965(2) 0.4905(3)
O12B O 0.7462(3) -0.24201(15) 0.5017(2)
H5B H 0.7129 -0.2502 0.5478
C14B C 0.7068(4) -0.1660(2) 0.5299(3)
N6B N 0.7098(3) -0.11790(16) 0.5209(2)
O13B O 0.8905(3) -0.10356(15) 0.4978(2)
C16B C 0.9138(5) -0.0628(2) 0.5188(3)
O14B O 0.9861(3) -0.05516(16) 0.5547(2)
C17B C 0.8540(4) -0.0241(2) 0.5021(3)
O21B O 0.8096(3) -0.09989(16) 0.3601(2)
C26B C 0.7519(5) -0.0944(2) 0.3125(3)
O22B O 0.7636(3) -0.08921(19) 0.2556(2)
H10B H 0.6933 -0.0840 0.2183
C27B C 0.6637(5) -0.0933(2) 0.3217(3)
N11B N 0.6499(3) -0.09970(17) 0.3819(2)
C28B C 0.5649(4) -0.09737(19) 0.3749(3)
N10B N 0.4543(3) -0.14023(15) 0.6052(2)
Ni1B Ni 0.56972(6) -0.14247(2) 0.66546(4)
O7B O 0.6756(3) -0.14775(14) 0.7406(2)
C10B C 0.6945(5) -0.1091(2) 0.7698(3)
O8B O 0.7560(4) -0.10381(17) 0.8171(2)
C9B C 0.6406(5) -0.0681(2) 0.7460(3)
N4B N 0.5723(3) -0.07417(17) 0.6970(2)
O9B O 0.5960(3) -0.21441(14) 0.6474(2)
C11B C 0.6399(5) -0.2177(2) 0.6058(3)
O10B O 0.6663(3) -0.25682(13) 0.5872(2)
C12B C 0.6641(4) -0.1741(2) 0.5780(3)
N5B N 0.6396(3) -0.13183(16) 0.5983(2)
O20B O 0.4911(3) -0.16581(15) 0.7283(2)
C25B C 0.4147(5) -0.1646(2) 0.7018(3)
O19B O 0.3539(4) -0.17599(18) 0.7306(2)
H8B H 0.2837 -0.1726 0.6929
C24B C 0.3909(5) -0.1509(2) 0.6355(3)
C13B C 0.6686(4) -0.09885(19) 0.5625(3)
H6B H 0.6605 -0.0658 0.5665
C8B C 0.5383(4) -0.03047(19) 0.6864(3)
N3B N 0.5799(3) 0.00195(17) 0.7260(2)
Ni2B Ni 0.59140(6) 0.07332(3) 0.74219(4)
O3B O 0.6290(3) 0.14395(15) 0.7681(2)
C5B C 0.6756(5) 0.1620(2) 0.7339(3)
O4B O 0.7085(4) 0.20221(16) 0.7418(2)
C4B C 0.6950(4) 0.1314(2) 0.6829(3)
N2B N 0.6638(3) 0.08614(17) 0.6775(2)
O5B O 0.6967(3) 0.04871(16) 0.8136(2)
C6B C 0.7057(5) 0.0050(2) 0.8107(3)
O6B O 0.7669(4) -0.01694(19) 0.8468(2)
H3B H 0.7622 -0.0600 0.8337
C7B C 0.6448(4) -0.0212(2) 0.7637(3)
O23B O 0.5156(4) 0.07360(16) 0.8115(2)
C30B C 0.4382(6) 0.0777(2) 0.7878(3)
O24B O 0.3793(4) 0.07712(18) 0.8188(2)
C29B C 0.4141(4) 0.0876(2) 0.7188(3)
N12B N 0.4761(3) 0.09003(16) 0.6845(2)
C3B C 0.6890(4) 0.0689(2) 0.6267(3)
H2B H 0.6773 0.0376 0.6116
H4B H 0.4898 -0.0236 0.6542
H11B H 0.5368 -0.1007 0.4092
H7B H 0.6794 0.0135 0.4378
H9B H 0.5585 0.1194 0.4859
N13 N 0.7087(5) 0.7546(2) 0.7692(3)
H12 H 0.6803 0.7786 0.7447
H13 H 0.7603 0.7505 0.7579
N14 N 0.3754(5) 0.8242(2) 1.1141(3)
H14 H 0.3465 0.8469 1.0876
H15 H 0.3756 0.8329 1.1551
C31 C 0.6586(6) 0.7106(2) 0.7565(4)
H16 H 0.6498 0.7028 0.7110
H17 H 0.6909 0.6844 0.7807
C32 C 0.5747(5) 0.7148(2) 0.7743(3)
H18 H 0.5441 0.6843 0.7667
H19 H 0.5402 0.7391 0.7476
C33 C 0.5858(5) 0.7287(2) 0.8456(3)
C34 C 0.4984(5) 0.7327(2) 0.8629(3)
H20 H 0.4658 0.7582 0.8374
H21 H 0.4670 0.7027 0.8515
C35 C 0.5032(5) 0.7428(2) 0.9331(3)
H22 H 0.5350 0.7170 0.9586
C36 C 0.4165(5) 0.7474(2) 0.9496(3)
H23 H 0.3861 0.7169 0.9404
H24 H 0.3835 0.7716 0.9217
C37 C 0.4178(6) 0.7607(2) 1.0183(3)
H25 H 0.4489 0.7353 1.0460
C38 C 0.3291(6) 0.7637(3) 1.0308(4)
H26 H 0.3000 0.7330 1.0205
H27 H 0.2965 0.7880 1.0028
C39 C 0.3299(7) 0.7762(3) 1.0997(4)
H28 H 0.2710 0.7784 1.1063
H29 H 0.3603 0.7515 1.1282
C40 C 0.4625(7) 0.8208(3) 1.1052(4)
H30 H 0.4938 0.7969 1.1346
H31 H 0.4913 0.8516 1.1153
C41 C 0.4648(6) 0.8069(2) 1.0366(3)
H32 H 0.4383 0.8322 1.0074
H33 H 0.5247 0.8035 1.0325
C42 C 0.6358(6) 0.7737(2) 0.8574(3)
H34 H 0.6454 0.7818 0.9029
H35 H 0.6029 0.7996 0.8331
C43 C 0.7237(6) 0.7686(3) 0.8375(4)
H36 H 0.7548 0.7989 0.8440
H37 H 0.7586 0.7443 0.8639
O25 O 0.7572(14) 0.0219(8) 0.1730(6)
N15 N 0.7823(7) 0.0345(4) 0.2795(6)
C44 C 0.8051(10) 0.0244(5) 0.2254(7)
C45 C 0.6936(7) 0.0434(7) 0.2804(7)
C46 C 0.8451(9) 0.0361(8) 0.3383(7)
O26 O 0.1029(12) 0.1635(7) 0.2997(11)
N16 N 0.1057(10) 0.0830(7) 0.2990(6)
C47 C 0.1364(9) 0.1255(8) 0.3175(8)
C48 C 0.0256(17) 0.0785(9) 0.2533(15)
C49 C 0.1517(14) 0.0407(8) 0.3235(11)
N17 N 0.0027(9) 0.6741(4) 0.0219(6)
H38 H -0.0305 0.6482 0.0081
H39 H 0.0584 0.6642 0.0329
C50 C -0.0235(10) 0.6945(5) 0.0799(6)
H40 H -0.0169 0.6706 0.1140
H41 H -0.0837 0.7047 0.0693
C51 C 0.0359(11) 0.7378(5) 0.1018(5)
H42 H 0.0198 0.7525 0.1391
H43 H 0.0954 0.7267 0.1148
C52 C 0.0303(12) 0.7754(4) 0.0487(7)
H44 H -0.0293 0.7878 0.0382
C53 C 0.0494(12) 0.7526(5) -0.0107(6)
H45 H 0.0403 0.7761 -0.0453
H46 H 0.1099 0.7430 -0.0023
C54 C -0.0059(11) 0.7097(5) -0.0320(5)
H47 H 0.0115 0.6948 -0.0687
H48 H -0.0661 0.7196 -0.0453
C55 C 0.0897(18) 0.8165(6) 0.0712(10)
H49 H 0.0604 0.8469 0.0588
H50 H 0.1405 0.8148 0.0521
N18 N -0.0246(15) 0.8975(11) 0.3110(11)
H51 H -0.0686 0.9039 0.3310
H52 H 0.0250 0.8968 0.3414
C56 C -0.0190(17) 0.9368(8) 0.2643(14)
H53 H -0.0094 0.9676 0.2864
H54 H -0.0724 0.9388 0.2317
C57 C 0.0574(18) 0.9246(7) 0.2329(11)
H55 H 0.0624 0.9492 0.2013
H56 H 0.1107 0.9248 0.2657
C58 C 0.0467(15) 0.8755(9) 0.1999(9)
H57 H -0.0052 0.8767 0.1650
C59 C 0.0334(18) 0.8376(7) 0.2469(14)
H58 H 0.0213 0.8071 0.2244
H59 H 0.0865 0.8338 0.2794
C60 C -0.0390(19) 0.8493(10) 0.2793(16)
H60 H -0.0426 0.8248 0.3115
H61 H -0.0935 0.8493 0.2478
C61 C 0.1227(19) 0.8645(12) 0.1708(13)
H62 H 0.1758 0.8681 0.2032
H63 H 0.1244 0.8869 0.1360
C62 C 0.116(2) 0.8129(10) 0.1446(12)
H64 H 0.0735 0.7947 0.1615
H65 H 0.1720 0.7967 0.1571
O27 O 0.543(2) 0.0508(10) 0.1715(14)
C63 C 0.529(2) 0.0730(7) 0.1167(9)
C64 C 0.507(3) 0.1197(8) 0.1199(11)
O28 O 1.2841(10) 0.8897(5) 0.0363(8)
O29 O 0.8616(9) 0.7457(7) 0.7305(10)
O30 O 0.0455(14) 0.8760(8) 0.6476(11)
O31 O 0.129(2) 0.8196(12) 0.8065(16)
C65 C 0.173(3) 0.8455(15) 0.855(2)
C66 C 0.262(2) 0.8429(11) 0.8618(19)
H66? H 0.0095 0.0121 0.4308
H67? H 0.6188 0.7032 0.8720
H68? H 0.5354 0.7725 0.9447
O32? O 0.8809(15) 0.0371(8) 0.2921(10)
N19? N 0.7473(15) 0.0196(16) 0.3049(19)
C67? C 0.8307(15) 0.0250(11) 0.3248(10)
C68? C 0.708(2) 0.028(5) 0.239(2)
C69? C 0.695(3) 0.005(2) 0.348(3)
N20? N -0.0051(10) 0.6716(6) -0.0285(10)
H69? H 0.0233 0.6446 -0.0126
H70? H -0.0624 0.6662 -0.0326
C70? C 0.0129(11) 0.6819(10) -0.0930(9)
H71? H -0.0070 0.6554 -0.1224
H72? H 0.0747 0.6861 -0.0900
C71? C -0.0362(12) 0.7283(12) -0.1172(12)
H73? H -0.0255 0.7363 -0.1594
H74? H -0.0980 0.7227 -0.1221
C72? C -0.0101(12) 0.7697(8) -0.0729(18)
H75? H 0.0517 0.7762 -0.0701
C73? C -0.0226(12) 0.7567(7) -0.0080(17)
H76? H -0.0017 0.7830 0.0214
H77? H -0.0843 0.7531 -0.0097
C74? C 0.0218(11) 0.7120(8) 0.0181(9)
H78? H 0.0071 0.7043 0.0591
H79? H 0.0842 0.7165 0.0253
C75? C -0.0604(15) 0.8135(10) -0.099(3)
H80? H -0.1131 0.8012 -0.1266
H81? H -0.0273 0.8279 -0.1281
C76? C 0.905(2) 0.864(3) -0.057(4)
H82? H 0.9402 0.8673 -0.0138
H83? H 0.9048 0.8936 -0.0805
N21? N 0.704(2) 0.9437(10) 0.0613(18)
H84? H 0.6982 0.9650 0.0923
H85? H 0.6509 0.9387 0.0362
C77? C 0.7374(18) 0.8976(11) 0.0921(10)
H86? H 0.6973 0.8845 0.1166
H87? H 0.7932 0.9025 0.1211
C78? C 0.7466(13) 0.8631(7) 0.0374(10)
H88? H 0.7690 0.8324 0.0559
H89? H 0.6898 0.8573 0.0103
C79? C 0.8054(13) 0.8821(11) -0.0032(12)
H90? H 0.8634 0.8861 0.0241
C80? C 0.774(3) 0.9297(11) -0.0288(15)
H91? H 0.8145 0.9430 -0.0526
H92? H 0.7186 0.9255 -0.0589
C81? C 0.762(3) 0.9646(8) 0.021(2)
H93? H 0.7368 0.9941 0.0008
H94? H 0.8180 0.9724 0.0483
C82? C 0.8113(18) 0.8469(16) -0.0554(17)
H95? H 0.7698 0.8530 -0.0954
H96? H 0.8082 0.8136 -0.0422
loop_
_geom_bond_atom_site_label_1
_geom_bond_atom_site_label_2
_geom_bond_site_symmetry_1
_geom_bond_site_symmetry_2
Ni1 O7 1_555 1_555
Ni2 O3 1_555 1_555
Ni3 O11 1_555 1_555
Ni4 O1 1_555 1_555
O1 C1 1_555 1_555
O2 H1 1_555 1_555
O3 C5 1_555 1_555
O4 C5 1_555 1_555
N1 Ni4 1_555 1_555
N2 Ni2 1_555 1_555
C1 O2 1_555 1_555
C2 N1 1_555 1_555
C3 N1 1_555 1_555
H2 C3 1_555 1_555
C4 N2 1_555 1_555
C5 C4 1_555 1_555
O5 Ni2 1_555 1_555
O6 H3 1_555 1_555
O7 C10 1_555 1_555
O8 C10 1_555 1_555
N3 Ni2 1_555 1_555
N4 Ni1 1_555 1_555
C6 O5 1_555 1_555
C7 N3 1_555 1_555
C8 N3 1_555 1_555
H4 C8 1_555 1_555
C9 N4 1_555 1_555
C10 C9 1_555 1_555
O9 Ni1 1_555 1_555
O10 C11 1_555 1_555
O11 C15 1_555 1_555
O12 H5 1_555 1_555
N5 Ni1 1_555 1_555
N6 Ni3 1_555 1_555
C11 O9 1_555 1_555
C12 N5 1_555 1_555
C13 N5 1_555 1_555
H6 C13 1_555 1_555
C14 N6 1_555 1_555
C15 O12 1_555 1_555
O13 Ni3 1_555 1_555
O14 C16 1_555 1_555
O15 Ni4 1_555 1_555
O16 C20 1_555 1_555
N7 Ni3 1_555 1_555
N8 Ni4 1_555 1_555
C16 O13 1_555 1_555
C17 N7 1_555 1_555
C18 N7 1_555 1_555
H7 C18 1_555 1_555
C19 N8 1_555 1_555
C20 O15 1_555 1_555
O17 Ni4 1_555 1_555
O18 C21 1_555 1_555
O19 H8 1_555 1_555
O20 Ni1 1_555 1_555
N9 Ni4 1_555 1_555
N10 Ni1 1_555 1_555
C21 O17 1_555 1_555
C22 N9 1_555 1_555
C23 N9 1_555 1_555
H9 C23 1_555 1_555
C24 N10 1_555 1_555
C25 O19 1_555 1_555
O21 Ni3 1_555 1_555
O22 H10 1_555 1_555
O23 Ni2 1_555 1_555
O24 C30 1_555 1_555
N11 Ni3 1_555 1_555
N12 Ni2 1_555 1_555
C26 O21 1_555 1_555
C27 N11 1_555 1_555
C28 N11 1_555 1_555
H11 C28 1_555 1_555
C29 N12 1_555 1_555
C30 O23 1_555 1_555
N13 H12 1_555 1_555
H13 N13 1_555 1_555
N14 H14 1_555 1_555
H15 N14 1_555 1_555
C31 N13 1_555 1_555
H16 C31 1_555 1_555
H17 C31 1_555 1_555
C32 C31 1_555 1_555
H18 C32 1_555 1_555
H19 C32 1_555 1_555
C33 C32 1_555 1_555
C34 C33 1_555 1_555
H20 C34 1_555 1_555
H21 C34 1_555 1_555
C35 C34 1_555 1_555
H22 C35 1_555 1_555
C36 C35 1_555 1_555
H23 C36 1_555 1_555
H24 C36 1_555 1_555
C37 C36 1_555 1_555
H25 C37 1_555 1_555
C38 C37 1_555 1_555
H26 C38 1_555 1_555
H27 C38 1_555 1_555
C39 N14 1_555 1_555
H28 C39 1_555 1_555
H29 C39 1_555 1_555
C40 N14 1_555 1_555
H30 C40 1_555 1_555
H31 C40 1_555 1_555
C41 C37 1_555 1_555
H32 C41 1_555 1_555
H33 C41 1_555 1_555
C42 C33 1_555 1_555
H34 C42 1_555 1_555
H35 C42 1_555 1_555
C43 N13 1_555 1_555
H36 C43 1_555 1_555
H37 C43 1_555 1_555
O25 C44 1_555 1_555
N15 C44 1_555 1_555
C45 N15 1_555 1_555
C46 N15 1_555 1_555
O26 C47 1_555 1_555
N16 C47 1_555 1_555
C48 N16 1_555 1_555
C49 N16 1_555 1_555
N17 H38 1_555 1_555
H39 N17 1_555 1_555
C50 N17 1_555 1_555
H40 C50 1_555 1_555
H41 C50 1_555 1_555
C51 C50 1_555 1_555
H42 C51 1_555 1_555
H43 C51 1_555 1_555
C52 C51 1_555 1_555
H44 C52 1_555 1_555
C53 C52 1_555 1_555
H45 C53 1_555 1_555
H46 C53 1_555 1_555
C54 N17 1_555 1_555
H47 C54 1_555 1_555
H48 C54 1_555 1_555
C55 C52 1_555 1_555
H49 C55 1_555 1_555
H50 C55 1_555 1_555
N18 H51 1_555 1_555
H52 N18 1_555 1_555
C56 N18 1_555 1_555
H53 C56 1_555 1_555
H54 C56 1_555 1_555
C57 C56 1_555 1_555
H55 C57 1_555 1_555
H56 C57 1_555 1_555
C58 C57 1_555 1_555
H57 C58 1_555 1_555
C59 C58 1_555 1_555
H58 C59 1_555 1_555
H59 C59 1_555 1_555
C60 N18 1_555 1_555
H60 C60 1_555 1_555
H61 C60 1_555 1_555
C61 C58 1_555 1_555
H62 C61 1_555 1_555
H63 C61 1_555 1_555
C62 C55 1_555 1_555
H64 C62 1_555 1_555
H65 C62 1_555 1_555
O27 C63 1_555 1_555
C63 C64 1_555 1_555
O31 C65 1_555 1_555
C65 C66 1_555 1_555
C23B N10 1_555 1_555
N9B C23B 1_555 1_555
Ni4B N9B 1_555 1_555
O1B Ni4B 1_555 1_555
C1B O1B 1_555 1_555
O2B C1B 1_555 1_555
H1B O2B 1_555 1_555
C2B C1B 1_555 1_555
N1B Ni4B 1_555 1_555
O15B Ni4B 1_555 1_555
C20B O15B 1_555 1_555
O16B C20B 1_555 1_555
C19B C20B 1_555 1_555
N8B Ni4B 1_555 1_555
O17B Ni4B 1_555 1_555
C21B O17B 1_555 1_555
O18B C21B 1_555 1_555
C22B C24 1_555 1_555
C18B N8B 1_555 1_555
N7B C18B 1_555 1_555
Ni3B N7B 1_555 1_555
O11B Ni3B 1_555 1_555
C15B O11B 1_555 1_555
O12B C15B 1_555 1_555
H5B O12B 1_555 1_555
C14B C15B 1_555 1_555
N6B Ni3B 1_555 1_555
O13B Ni3B 1_555 1_555
C16B O13B 1_555 1_555
O14B C16B 1_555 1_555
C17B C19B 1_555 1_555
O21B Ni3B 1_555 1_555
C26B O21B 1_555 1_555
O22B C26B 1_555 1_555
H10B O22B 1_555 1_555
C27B C29 1_555 1_555
N11B Ni3B 1_555 1_555
C28B N12 1_555 1_555
N10B C23 1_555 1_555
Ni1B N10B 1_555 1_555
O7B Ni1B 1_555 1_555
C10B O7B 1_555 1_555
O8B C10B 1_555 1_555
C9B C10B 1_555 1_555
N4B Ni1B 1_555 1_555
O9B Ni1B 1_555 1_555
C11B O9B 1_555 1_555
O10B C11B 1_555 1_555
C12B C14B 1_555 1_555
N5B Ni1B 1_555 1_555
O20B Ni1B 1_555 1_555
C25B O20B 1_555 1_555
O19B C25B 1_555 1_555
H8B O19B 1_555 1_555
C24B C22 1_555 1_555
C13B N6B 1_555 1_555
H6B C13B 1_555 1_555
C8B N4B 1_555 1_555
N3B C8B 1_555 1_555
Ni2B N3B 1_555 1_555
O3B Ni2B 1_555 1_555
C5B O3B 1_555 1_555
O4B C5B 1_555 1_555
C4B C2B 1_555 1_555
N2B Ni2B 1_555 1_555
O5B Ni2B 1_555 1_555
C6B O5B 1_555 1_555
O6B C6B 1_555 1_555
H3B O6B 1_555 1_555
C7B C9B 1_555 1_555
O23B Ni2B 1_555 1_555
C30B O23B 1_555 1_555
O24B C30B 1_555 1_555
C29B C27 1_555 1_555
N12B C28 1_555 1_555
C3B N1B 1_555 1_555
H2B C3B 1_555 1_555
H4B C8B 1_555 1_555
H11B C28B 1_555 1_555
H7B C18B 1_555 1_555
H9B C23B 1_555 1_555
N2 C3 1_555 1_555
C1 C2 1_555 1_555
C2 C4 1_555 1_555
O6 C6 1_555 1_555
N4 C8 1_555 1_555
C6 C7 1_555 1_555
C7 C9 1_555 1_555
N6 C13 1_555 1_555
C11 C12 1_555 1_555
C12 C14 1_555 1_555
C14 C15 1_555 1_555
N8 C18 1_555 1_555
C16 C17 1_555 1_555
C17 C19 1_555 1_555
C19 C20 1_555 1_555
O20 C25 1_555 1_555
C21 C22 1_555 1_555
C24 C25 1_555 1_555
O22 C26 1_555 1_555
C26 C27 1_555 1_555
C29 C30 1_555 1_555
C38 C39 1_555 1_555
C40 C41 1_555 1_555
C42 C43 1_555 1_555
C53 C54 1_555 1_555
C59 C60 1_555 1_555
C61 C62 1_555 1_555
N9B C22B 1_555 1_555
C2B N1B 1_555 1_555
C19B N8B 1_555 1_555
C21B C22B 1_555 1_555
N7B C17B 1_555 1_555
C14B N6B 1_555 1_555
C16B C17B 1_555 1_555
C26B C27B 1_555 1_555
C27B N11B 1_555 1_555
N11B C28B 1_555 1_555
N10B C24B 1_555 1_555
C9B N4B 1_555 1_555
C11B C12B 1_555 1_555
C12B N5B 1_555 1_555
N5B C13B 1_555 1_555
C25B C24B 1_555 1_555
N3B C7B 1_555 1_555
Ni2B N12B 1_555 1_555
C5B C4B 1_555 1_555
C4B N2B 1_555 1_555
N2B C3B 1_555 1_555
C6B C7B 1_555 1_555
C30B C29B 1_555 1_555
C29B N12B 1_555 1_555

#END
