
#######################################################################
#
#                 Cambridge Crystallographic Data Centre
#                                CCDC 
#
#######################################################################
#
# If this CIF has been generated from an entry in the Cambridge 
# Structural Database, then it will include bibliographic, chemical, 
# crystal, experimental, refinement or atomic coordinate data resulting 
# from the CCDC's data processing and validation procedures.
#
#######################################################################

data_DAVBAE
_chemical_formula_moiety         'C57 H48 Fe1 N4 O1'
_chemical_name_systematic        
5,10-bis(4-Isopropylphenyl)-19-(4-ferrocenylphenyl)-25-oxasmaragdyrin
_symmetry_cell_setting           orthorhombic
_symmetry_space_group_name_H-M   'P n a 21'
_symmetry_Int_Tables_number      33
_space_group_name_Hall           'P 2c -2n'
loop_
_symmetry_equiv_pos_site_id
_symmetry_equiv_pos_as_xyz
1 x,y,z
2 -x,-y,1/2+z
3 1/2-x,1/2+y,1/2+z
4 1/2+x,1/2-y,z
_cell_length_a                   17.796(5)
_cell_length_b                   24.892(5)
_cell_length_c                   9.655(5)
_cell_angle_alpha                90
_cell_angle_beta                 90
_cell_angle_gamma                90
_cell_volume                     4276.95
_exptl_crystal_colour            red
_exptl_crystal_description       prism
_cell_formula_units_Z            4
_exptl_crystal_recrystallization_method dichloromethane/methanol
loop_
_atom_site_label
_atom_site_type_symbol
_atom_site_fract_x
_atom_site_fract_y
_atom_site_fract_z
C1 C 0.7967(3) -0.0591(2) 0.8028(6)
C2 C 0.8676(3) -0.0403(2) 0.7792(6)
C3 C 0.5981(3) -0.0451(2) 0.8403(5)
C4 C 0.7269(3) 0.3121(2) 0.8702(6)
C5 C 0.9293(3) -0.0821(2) 0.7731(6)
C6 C 0.5597(3) 0.0986(2) 0.8600(5)
C7 C 0.7934(3) 0.2269(2) 0.8126(6)
C8 C 0.5394(3) 0.1992(2) 0.9036(6)
H1 H 0.4882 0.1996 0.9224
C9 C 0.6596(3) 0.2238(2) 0.8669(5)
C10 C 0.5040(3) -0.0981(2) 0.9792(6)
H2 H 0.5148 -0.0765 1.0553
C11 C 0.8708(3) 0.1586(2) 0.7730(6)
C12 C 0.8943(3) 0.0140(2) 0.7641(5)
C13 C 0.6710(3) -0.0609(2) 0.8313(5)
C14 C 0.4312(3) -0.1707(2) 0.8780(6)
C15 C 0.5229(3) -0.1214(2) 0.7441(6)
H3 H 0.5469 -0.1160 0.6596
C16 C 0.7737(3) -0.1123(2) 0.8261(6)
H4 H 0.8052 -0.1421 0.8282
C17 C 0.9677(4) 0.0304(2) 0.7441(7)
H5 H 1.0090 0.0078 0.7339
C18 C 0.5842(3) 0.1532(2) 0.8695(5)
C19 C 0.7803(3) 0.3352(2) 0.9577(5)
H6 H 0.8160 0.3135 1.0006
C20 C 0.7254(3) 0.2532(2) 0.8466(5)
C21 C 0.5679(3) 0.0087(2) 0.8440(5)
C22 C 0.5410(3) -0.0895(2) 0.8533(6)
C23 C 0.4872(3) 0.0785(2) 0.8634(6)
H7 H 0.4432 0.0983 0.8716
C24 C 0.6996(3) -0.1135(2) 0.8448(5)
H8 H 0.6713 -0.1440 0.8636
C25 C 0.5866(3) 0.2421(2) 0.9033(6)
H9 H 0.5734 0.2774 0.9234
C26 C 0.6757(3) 0.4003(2) 0.8306(5)
H10 H 0.6404 0.4219 0.7867
C27 C 0.8966(3) 0.1043(2) 0.7633(5)
C28 C 0.7283(3) 0.4831(2) 0.9458(5)
C29 C 0.4693(3) -0.1621(2) 0.7553(6)
H11 H 0.4590 -0.1837 0.6791
C30 C 0.3685(5) -0.2123(3) 0.8920(8)
H12 H 0.3241 -0.1910 0.9167
C31 C 0.8652(3) 0.2480(2) 0.7779(7)
H13 H 0.8775 0.2843 0.7718
C32 C 0.7808(3) 0.3906(2) 0.9814(6)
H14 H 0.8170 0.4054 1.0394
C33 C 0.6754(3) 0.3457(2) 0.8067(7)
H15 H 0.6400 0.3311 0.7466
C34 C 0.9630(4) -0.0997(3) 0.8931(6)
H16 H 0.9487 -0.0854 0.9780
C35 C 0.7281(3) 0.4237(2) 0.9199(6)
C36 C 0.6688(4) 0.5196(3) 0.9253(7)
C37 C 0.9132(3) 0.2059(2) 0.7549(6)
H17 H 0.9639 0.2081 0.7320
C38 C 0.7922(4) 0.5144(3) 0.9865(6)
C39 C 1.0178(4) -0.1385(3) 0.8872(7)
H18 H 1.0392 -0.1503 0.9696
C40 C 1.0422(4) -0.1606(3) 0.7657(7)
C41 C 0.4517(4) -0.1385(3) 0.9900(6)
H19 H 0.4291 -0.1446 1.0754
C42 C 0.9513(4) -0.1040(3) 0.6475(6)
H20 H 0.9288 -0.0930 0.5654
C43 C 0.3470(5) -0.2392(3) 0.7626(7)
H21 H 0.3907 -0.2550 0.7210
H22 H 0.3256 -0.2134 0.7002
H23 H 0.3108 -0.2667 0.7822
C44 C 0.4926(3) 0.0232(2) 0.8522(6)
H24 H 0.4523 -0.0005 0.8504
C45 C 0.9697(3) 0.0858(2) 0.7420(6)
H25 H 1.0121 0.1071 0.7287
C46 C 0.7713(4) 0.5679(3) 0.9931(6)
C47 C 0.8407(5) 0.5532(4) 0.6636(7)
C48 C 0.6940(4) 0.5713(3) 0.9571(8)
C49 C 1.1158(4) -0.2342(3) 0.8890(9)
H26 H 1.1562 -0.2593 0.8762
H27 H 1.0704 -0.2533 0.9099
H28 H 1.1277 -0.2104 0.9642
C50 C 0.8132(5) 0.5023(3) 0.6418(7)
C51 C 1.0072(4) -0.1427(3) 0.6465(7)
H29 H 1.0218 -0.1572 0.5619
C52 C 1.1051(6) -0.2022(5) 0.7589(10)
H30 H 1.0703 -0.2292 0.7227
C53 C 0.3793(4) -0.2479(3) 1.0103(8)
H31 H 0.3340 -0.2679 1.0269
H32 H 0.3914 -0.2270 1.0908
H33 H 0.4197 -0.2724 0.9912
C54 C 0.7196(5) 0.5601(4) 0.6062(7)
C55 C 0.7864(6) 0.5890(3) 0.6398(7)
C56 C 0.7381(6) 0.5053(4) 0.6063(8)
C57 C 1.1459(7) -0.2071(5) 0.6553(11)
H34 H 1.1288 -0.1832 0.5838
H35 H 1.1436 -0.2434 0.6225
H36 H 1.1968 -0.1984 0.6794
Fe1 Fe 0.75444(4) 0.53767(3) 0.79709(11)
N1 N 0.6068(2) 0.05631(19) 0.8431(4)
N2 N 0.8517(2) 0.05972(18) 0.7765(5)
N3 N 0.7997(2) 0.17177(18) 0.8050(5)
N4 N 0.6553(2) 0.16875(18) 0.8482(4)
O1 O 0.73172(16) -0.02637(13) 0.8066(5)
H37 H 0.6558(12) 0.053(2) 0.854(6)
H38 H 0.8026(13) 0.0625(19) 0.794(7)
H39 H 0.7583(19) 0.1558(19) 0.835(5)
H40 H 0.6206(15) 0.510(2) 0.909(6)
H41 H 0.8380(17) 0.501(2) 1.003(6)
H42 H 0.800(3) 0.5962(16) 1.023(6)
H43 H 0.8908(13) 0.550(2) 0.679(6)
H44 H 0.662(2) 0.5997(15) 0.956(6)
H45 H 0.836(3) 0.4699(13) 0.637(6)
H46 H 0.6724(14) 0.572(2) 0.593(6)
H47 H 0.782(3) 0.6238(10) 0.654(6)
H48 H 0.703(2) 0.4829(19) 0.576(6)
loop_
_geom_bond_atom_site_label_1
_geom_bond_atom_site_label_2
_geom_bond_site_symmetry_1
_geom_bond_site_symmetry_2
C1 C2 1_555 1_555
C2 C5 1_555 1_555
C3 C13 1_555 1_555
C4 C19 1_555 1_555
C5 C34 1_555 1_555
C6 C18 1_555 1_555
C7 C20 1_555 1_555
C8 H1 1_555 1_555
C9 C20 1_555 1_555
C10 H2 1_555 1_555
C11 C27 1_555 1_555
C12 C2 1_555 1_555
C13 C24 1_555 1_555
C14 C29 1_555 1_555
C15 H3 1_555 1_555
C16 C1 1_555 1_555
H4 C16 1_555 1_555
C17 C12 1_555 1_555
H5 C17 1_555 1_555
C18 C8 1_555 1_555
C19 H6 1_555 1_555
C20 C4 1_555 1_555
C21 C3 1_555 1_555
C22 C3 1_555 1_555
C23 C6 1_555 1_555
H7 C23 1_555 1_555
C24 C16 1_555 1_555
H8 C24 1_555 1_555
C25 C8 1_555 1_555
H9 C25 1_555 1_555
C26 H10 1_555 1_555
C27 C45 1_555 1_555
C28 C35 1_555 1_555
C29 C15 1_555 1_555
H11 C29 1_555 1_555
C30 C14 1_555 1_555
H12 C30 1_555 1_555
C31 C7 1_555 1_555
H13 C31 1_555 1_555
C32 C19 1_555 1_555
H14 C32 1_555 1_555
C33 C4 1_555 1_555
H15 C33 1_555 1_555
C34 H16 1_555 1_555
C35 C26 1_555 1_555
C36 C28 1_555 1_555
C37 C11 1_555 1_555
H17 C37 1_555 1_555
C38 C28 1_555 1_555
C39 C34 1_555 1_555
H18 C39 1_555 1_555
C40 C39 1_555 1_555
C41 C10 1_555 1_555
H19 C41 1_555 1_555
C42 C5 1_555 1_555
H20 C42 1_555 1_555
C43 C30 1_555 1_555
H21 C43 1_555 1_555
H22 C43 1_555 1_555
H23 C43 1_555 1_555
C44 C21 1_555 1_555
H24 C44 1_555 1_555
C45 C17 1_555 1_555
H25 C45 1_555 1_555
C46 C38 1_555 1_555
C47 C50 1_555 1_555
C48 C36 1_555 1_555
C49 H26 1_555 1_555
H27 C49 1_555 1_555
H28 C49 1_555 1_555
C50 C56 1_555 1_555
C51 C40 1_555 1_555
H29 C51 1_555 1_555
C52 C40 1_555 1_555
H30 C52 1_555 1_555
C53 C30 1_555 1_555
H31 C53 1_555 1_555
H32 C53 1_555 1_555
H33 C53 1_555 1_555
C54 C55 1_555 1_555
C55 C47 1_555 1_555
C56 C54 1_555 1_555
C57 C52 1_555 1_555
H34 C57 1_555 1_555
H35 C57 1_555 1_555
H36 C57 1_555 1_555
Fe1 C28 1_555 1_555
N1 C6 1_555 1_555
N2 C12 1_555 1_555
N3 C7 1_555 1_555
N4 C9 1_555 1_555
O1 C1 1_555 1_555
H37 N1 1_555 1_555
H38 N2 1_555 1_555
H39 N3 1_555 1_555
H40 C36 1_555 1_555
H41 C38 1_555 1_555
H42 C46 1_555 1_555
H43 C47 1_555 1_555
H44 C48 1_555 1_555
H45 C50 1_555 1_555
H46 C54 1_555 1_555
H47 C55 1_555 1_555
H48 C56 1_555 1_555
C9 C25 1_555 1_555
C10 C22 1_555 1_555
C11 N3 1_555 1_555
C13 O1 1_555 1_555
C14 C41 1_555 1_555
C15 C22 1_555 1_555
C18 N4 1_555 1_555
C21 N1 1_555 1_555
C23 C44 1_555 1_555
C26 C33 1_555 1_555
C27 N2 1_555 1_555
C31 C37 1_555 1_555
C32 C35 1_555 1_555
C36 Fe1 1_555 1_555
C38 Fe1 1_555 1_555
C42 C51 1_555 1_555
C46 C48 1_555 1_555
C46 Fe1 1_555 1_555
C47 Fe1 1_555 1_555
C48 Fe1 1_555 1_555
C49 C52 1_555 1_555
C50 Fe1 1_555 1_555
C54 Fe1 1_555 1_555
C55 Fe1 1_555 1_555
C56 Fe1 1_555 1_555

#END
