
#######################################################################
#
#                 Cambridge Crystallographic Data Centre
#                                CCDC 
#
#######################################################################
#
# If this CIF has been generated from an entry in the Cambridge 
# Structural Database, then it will include bibliographic, chemical, 
# crystal, experimental, refinement or atomic coordinate data resulting 
# from the CCDC's data processing and validation procedures.
#
#######################################################################

data_DIQQAV
_chemical_formula_moiety         
'C64 H48 Cu2 Fe2 N16 4+,4(F6 P1 1-),C1 H1 Cl3,2(H2 O1)'
_chemical_name_systematic        
"tetrakis(\m~2~-Cyano)-hexakis(2,2'-bipyridyl)-di-copper(ii)-di-iron(ii) hexafluorophosphate chloroform solvate dihydrate"
_symmetry_cell_setting           triclinic
_symmetry_space_group_name_H-M   'P -1'
_symmetry_Int_Tables_number      2
_space_group_name_Hall           '-P 1'
loop_
_symmetry_equiv_pos_site_id
_symmetry_equiv_pos_as_xyz
1 x,y,z
2 -x,-y,-z
_cell_length_a                   14.491(4)
_cell_length_b                   15.312(4)
_cell_length_c                   12.959(3)
_cell_angle_alpha                91.38(2)
_cell_angle_beta                 109.56(2)
_cell_angle_gamma                65.41(2)
_cell_volume                     2441.38
_exptl_crystal_colour            'dark red'
_exptl_crystal_description       tablet
_cell_formula_units_Z            1
loop_
_atom_site_label
_atom_site_type_symbol
_atom_site_fract_x
_atom_site_fract_y
_atom_site_fract_z
Cu1 Cu 0.40487(6) -0.14655(6) 1.09252(7)
Fe1 Fe 0.26249(7) 0.09209(7) 0.75882(7)
N1 N 0.3498(5) -0.0559(5) 0.9601(5)
N2 N 0.5395(5) -0.1334(4) 1.1491(5)
N3 N 0.1838(4) 0.2022(4) 0.8265(5)
N4 N 0.2014(4) 0.1983(4) 0.6354(4)
N5 N 0.3288(4) -0.0112(4) 0.6764(4)
N6 N 0.1422(4) 0.0519(4) 0.6990(4)
N7 N 0.2643(4) -0.1571(4) 1.0589(5)
N8 N 0.4498(5) -0.2455(4) 1.2195(5)
C1 C 0.3184(5) 0.0001(5) 0.8837(5)
C2 C 0.6140(5) -0.1167(5) 1.1835(5)
C3 C 0.1740(6) 0.1981(6) 0.9256(6)
H1 H 0.2025(6) 0.1377(6) 0.9665(6)
C4 C 0.1231(7) 0.2800(7) 0.9690(7)
H2 H 0.1174(7) 0.2745(7) 1.0377(7)
C5 C 0.0817(8) 0.3681(7) 0.9106(9)
H3 H 0.0478(8) 0.4240(7) 0.9389(9)
C6 C 0.0905(7) 0.3741(6) 0.8075(8)
H4 H 0.0616(7) 0.4341(6) 0.7658(8)
C7 C 0.1420(6) 0.2909(5) 0.7679(6)
C8 C 0.1541(6) 0.2895(5) 0.6598(6)
C9 C 0.1226(7) 0.3707(5) 0.5887(7)
H5 H 0.0917(7) 0.4321(5) 0.6086(7)
C10 C 0.1367(8) 0.3612(6) 0.4886(7)
H6 H 0.1183(8) 0.4152(6) 0.4411(7)
C11 C 0.1798(8) 0.2677(6) 0.4609(7)
H7 H 0.1883(8) 0.2583(6) 0.3928(7)
C12 C 0.2095(6) 0.1898(6) 0.5353(6)
H8 H 0.2366(6) 0.1280(6) 0.5152(6)
C13 C 0.4217(6) -0.0338(6) 0.6587(6)
H9 H 0.4612(6) 0.0013(6) 0.6889(6)
C14 C 0.4618(8) -0.1052(7) 0.5991(8)
H10 H 0.5274(8) -0.1193(7) 0.5902(8)
C15 C 0.4025(8) -0.1556(7) 0.5525(9)
H11 H 0.4260(8) -0.2029(7) 0.5089(9)
C16 C 0.3079(8) -0.1353(6) 0.5710(8)
H12 H 0.2685(8) -0.1708(6) 0.5423(8)
C17 C 0.2720(6) -0.0628(5) 0.6318(6)
C18 C 0.1698(6) -0.0314(5) 0.6507(6)
C19 C 0.1024(7) -0.0788(6) 0.6222(7)
H13 H 0.1224(7) -0.1356(6) 0.5902(7)
C20 C 0.0060(7) -0.0408(7) 0.6418(7)
H14 H -0.0384(7) -0.0728(7) 0.6254(7)
C21 C -0.0232(6) 0.0444(7) 0.6857(7)
H15 H -0.0888(6) 0.0720(7) 0.6975(7)
C22 C 0.0467(5) 0.0894(6) 0.7127(6)
H16 H 0.0257(5) 0.1479(6) 0.7413(6)
C23 C 0.1732(6) -0.1074(6) 0.9749(7)
H17 H 0.1735(6) -0.0662(6) 0.9236(7)
C24 C 0.0785(7) -0.1140(7) 0.9603(8)
H18 H 0.0160(7) -0.0796(7) 0.8994(8)
C25 C 0.0787(7) -0.1738(7) 1.0394(8)
H19 H 0.0157(7) -0.1800(7) 1.0323(8)
C26 C 0.1707(7) -0.2228(7) 1.1265(7)
H20 H 0.1710(7) -0.2614(7) 1.1810(7)
C27 C 0.2649(6) -0.2155(5) 1.1346(6)
C28 C 0.3707(6) -0.2668(5) 1.2249(6)
C29 C 0.3910(7) -0.3358(6) 1.3082(7)
H21 H 0.3358(7) -0.3502(6) 1.3118(7)
C30 C 0.4938(8) -0.3817(7) 1.3842(8)
H22 H 0.5088(8) -0.4279(7) 1.4402(8)
C31 C 0.5750(8) -0.3604(7) 1.3787(8)
H23 H 0.6452(8) -0.3915(7) 1.4302(8)
C32 C 0.5496(6) -0.2914(6) 1.2946(7)
H24 H 0.6041(6) -0.2763(6) 1.2901(7)
C2A C 0.3860(5) 0.1167(5) 0.8165(5)
N2A N 0.4605(5) 0.1334(4) 0.8509(5)
Cu1A Cu 0.59513(6) 0.14655(6) 0.90748(7)
N1A N 0.6502(5) 0.0559(5) 1.0399(5)
C1A C 0.6816(5) -0.0001(5) 1.1163(5)
Fe1A Fe 0.73751(7) -0.09209(7) 1.24118(7)
N3A N 0.8162(4) -0.2022(4) 1.1735(5)
C3A C 0.8260(6) -0.1981(6) 1.0744(6)
H1A H 0.7975(6) -0.1377(6) 1.0335(6)
C4A C 0.8769(7) -0.2800(7) 1.0310(7)
H2A H 0.8826(7) -0.2745(7) 0.9623(7)
C5A C 0.9183(8) -0.3681(7) 1.0894(9)
H3A H 0.9522(8) -0.4240(7) 1.0611(9)
C6A C 0.9095(7) -0.3741(6) 1.1925(8)
H4A H 0.9384(7) -0.4341(6) 1.2342(8)
C7A C 0.8580(6) -0.2909(5) 1.2321(6)
C8A C 0.8459(6) -0.2895(5) 1.3402(6)
N4A N 0.7986(4) -0.1983(4) 1.3646(4)
N5A N 0.6712(4) 0.0112(4) 1.3236(4)
C13A C 0.5783(6) 0.0338(6) 1.3413(6)
H9A H 0.5388(6) -0.0013(6) 1.3111(6)
C14A C 0.5382(8) 0.1052(7) 1.4009(8)
H10A H 0.4726(8) 0.1193(7) 1.4098(8)
C15A C 0.5975(8) 0.1556(7) 1.4475(9)
H11A H 0.5740(8) 0.2029(7) 1.4911(9)
C16A C 0.6921(8) 0.1353(6) 1.4290(8)
H12A H 0.7315(8) 0.1708(6) 1.4577(8)
C17A C 0.7280(6) 0.0628(5) 1.3682(6)
C18A C 0.8302(6) 0.0314(5) 1.3493(6)
N6A N 0.8578(4) -0.0519(4) 1.3010(4)
C22A C 0.9533(5) -0.0894(6) 1.2873(6)
C21A C 1.0232(6) -0.0444(7) 1.3143(7)
C20A C 0.9940(7) 0.0408(7) 1.3582(7)
C19A C 0.8976(7) 0.0788(6) 1.3778(7)
H13A H 0.8776(7) 0.1356(6) 1.4098(7)
H14A H 1.0384(7) 0.0728(7) 1.3746(7)
H15A H 1.0888(6) -0.0720(7) 1.3025(7)
H16A H 0.9743(5) -0.1479(6) 1.2587(6)
C12A C 0.7905(6) -0.1898(6) 1.4647(6)
C11A C 0.8202(8) -0.2677(6) 1.5391(7)
C10A C 0.8633(8) -0.3612(6) 1.5114(7)
C9A C 0.8774(7) -0.3707(5) 1.4113(7)
H5A H 0.9083(7) -0.4321(5) 1.3914(7)
H6A H 0.8817(8) -0.4152(6) 1.5589(7)
H7A H 0.8117(8) -0.2583(6) 1.6072(7)
H8A H 0.7634(6) -0.1280(6) 1.4848(6)
N7A N 0.7357(4) 0.1571(4) 0.9411(5)
C23A C 0.8268(6) 0.1074(6) 1.0251(7)
H17A H 0.8265(6) 0.0662(6) 1.0764(7)
C24A C 0.9215(7) 0.1140(7) 1.0397(8)
H18A H 0.9840(7) 0.0796(7) 1.1006(8)
C25A C 0.9213(7) 0.1738(7) 0.9606(8)
H19A H 0.9843(7) 0.1800(7) 0.9677(8)
C26A C 0.8293(7) 0.2228(7) 0.8735(7)
H20A H 0.8290(7) 0.2614(7) 0.8190(7)
C27A C 0.7351(6) 0.2155(5) 0.8654(6)
C28A C 0.6293(6) 0.2668(5) 0.7751(6)
N8A N 0.5502(5) 0.2455(4) 0.7805(5)
C32A C 0.4504(6) 0.2914(6) 0.7054(7)
C31A C 0.4250(8) 0.3604(7) 0.6213(8)
C30A C 0.5062(8) 0.3817(7) 0.6158(8)
C29A C 0.6090(7) 0.3358(6) 0.6918(7)
H21A H 0.6642(7) 0.3502(6) 0.6882(7)
H22A H 0.4912(8) 0.4279(7) 0.5598(8)
H23A H 0.3548(8) 0.3915(7) 0.5698(8)
H24A H 0.3959(6) 0.2763(6) 0.7099(7)
O1 O 0.4920(18) -0.2832(11) 0.9801(16)
P1 P -0.1822(2) 0.3562(2) 0.5369(2)
F1 F -0.0726(5) 0.2782(5) 0.5272(7)
F2 F -0.2929(5) 0.4327(4) 0.5484(6)
F3 F -0.1167(13) 0.3664(19) 0.6527(17)
F4 F -0.2480(13) 0.3423(16) 0.4197(9)
F5 F -0.1983(8) 0.2704(6) 0.5879(11)
F6 F -0.1686(16) 0.4368(9) 0.4853(25)
P2 P 0.2503(2) 0.0545(2) 1.2495(2)
F11 F 0.3230(7) 0.0509(8) 1.3702(6)
F12 F 0.1754(6) 0.0647(7) 1.1248(6)
F13 F 0.3486(22) -0.0040(24) 1.2126(24)
F14 F 0.1550(21) 0.1038(19) 1.2934(21)
F15 F 0.2455(20) -0.0468(13) 1.2709(14)
F16 F 0.2654(23) 0.1445(14) 1.2452(23)
C33 C 0.7255(17) -0.4579(12) 0.7568(15)
Cl1 Cl 0.7749(5) -0.5129(4) 0.8910(4)
Cl2 Cl 0.5774(5) -0.4081(4) 0.7085(5)
Cl3 Cl 0.7647(9) -0.3679(6) 0.7522(7)
F7? F -0.1331(46) 0.3313(44) 0.6642(33)
F8? F -0.2215(63) 0.4253(52) 0.4277(37)
F9? F -0.1318(44) 0.4319(35) 0.5968(83)
F10? F -0.2375(55) 0.3091(55) 0.4543(79)
F17? F 0.1441(17) 0.1420(26) 1.2404(35)
F18? F 0.2002(31) -0.0119(30) 1.2532(35)
F19? F 0.2763(32) 0.1345(31) 1.2071(27)
F20? F 0.3490(23) -0.0317(30) 1.2554(44)
C34? C 0.1856(10) -0.3816(8) 0.7839(16)
Cl4? Cl 0.2604(10) -0.5079(8) 0.8264(9)
Cl5? Cl 0.0627(8) -0.3474(12) 0.8078(11)
Cl6? Cl 0.2722(14) -0.3286(11) 0.8553(12)
loop_
_geom_bond_atom_site_label_1
_geom_bond_atom_site_label_2
_geom_bond_site_symmetry_1
_geom_bond_site_symmetry_2
Cu1 N1 1_555 1_555
Fe1 N3 1_555 1_555
N1 C1 1_555 1_555
N2 Cu1 1_555 1_555
N3 C3 1_555 1_555
N4 Fe1 1_555 1_555
N5 Fe1 1_555 1_555
N6 Fe1 1_555 1_555
N7 Cu1 1_555 1_555
N8 Cu1 1_555 1_555
C1 Fe1 1_555 1_555
C2 N2 1_555 1_555
C3 H1 1_555 1_555
C4 C3 1_555 1_555
H2 C4 1_555 1_555
C5 C4 1_555 1_555
H3 C5 1_555 1_555
C6 C5 1_555 1_555
H4 C6 1_555 1_555
C7 N3 1_555 1_555
C8 N4 1_555 1_555
C9 C8 1_555 1_555
H5 C9 1_555 1_555
C10 C9 1_555 1_555
H6 C10 1_555 1_555
C11 C10 1_555 1_555
H7 C11 1_555 1_555
C12 N4 1_555 1_555
H8 C12 1_555 1_555
C13 N5 1_555 1_555
H9 C13 1_555 1_555
C14 C13 1_555 1_555
H10 C14 1_555 1_555
C15 C14 1_555 1_555
H11 C15 1_555 1_555
C16 C15 1_555 1_555
H12 C16 1_555 1_555
C17 N5 1_555 1_555
C18 N6 1_555 1_555
C19 C18 1_555 1_555
H13 C19 1_555 1_555
C20 C19 1_555 1_555
H14 C20 1_555 1_555
C21 C20 1_555 1_555
H15 C21 1_555 1_555
C22 N6 1_555 1_555
H16 C22 1_555 1_555
C23 N7 1_555 1_555
H17 C23 1_555 1_555
C24 C23 1_555 1_555
H18 C24 1_555 1_555
C25 C24 1_555 1_555
H19 C25 1_555 1_555
C26 C25 1_555 1_555
H20 C26 1_555 1_555
C27 N7 1_555 1_555
C28 N8 1_555 1_555
C29 C28 1_555 1_555
H21 C29 1_555 1_555
C30 C29 1_555 1_555
H22 C30 1_555 1_555
C31 C30 1_555 1_555
H23 C31 1_555 1_555
C32 N8 1_555 1_555
H24 C32 1_555 1_555
P1 F1 1_555 1_555
F2 P1 1_555 1_555
F3 P1 1_555 1_555
F4 P1 1_555 1_555
F5 P1 1_555 1_555
F6 P1 1_555 1_555
P2 F11 1_555 1_555
F12 P2 1_555 1_555
F13 P2 1_555 1_555
F14 P2 1_555 1_555
F15 P2 1_555 1_555
F16 P2 1_555 1_555
C33 Cl1 1_555 1_555
Cl2 C33 1_555 1_555
Cl3 C33 1_555 1_555
C2A Fe1 1_555 1_555
N2A C2A 1_555 1_555
Cu1A N2A 1_555 1_555
N1A Cu1A 1_555 1_555
C1A N1A 1_555 1_555
Fe1A C2 1_555 1_555
N3A Fe1A 1_555 1_555
C3A N3A 1_555 1_555
H1A C3A 1_555 1_555
C4A C3A 1_555 1_555
H2A C4A 1_555 1_555
C5A C4A 1_555 1_555
H3A C5A 1_555 1_555
C6A C5A 1_555 1_555
H4A C6A 1_555 1_555
C7A N3A 1_555 1_555
C8A C7A 1_555 1_555
N4A Fe1A 1_555 1_555
N5A Fe1A 1_555 1_555
C13A N5A 1_555 1_555
H9A C13A 1_555 1_555
C14A C13A 1_555 1_555
H10A C14A 1_555 1_555
C15A C14A 1_555 1_555
H11A C15A 1_555 1_555
C16A C15A 1_555 1_555
H12A C16A 1_555 1_555
C17A N5A 1_555 1_555
C18A C17A 1_555 1_555
N6A Fe1A 1_555 1_555
C22A N6A 1_555 1_555
C21A C22A 1_555 1_555
C20A C21A 1_555 1_555
C19A C18A 1_555 1_555
H13A C19A 1_555 1_555
H14A C20A 1_555 1_555
H15A C21A 1_555 1_555
H16A C22A 1_555 1_555
C12A N4A 1_555 1_555
C11A C12A 1_555 1_555
C10A C11A 1_555 1_555
C9A C8A 1_555 1_555
H5A C9A 1_555 1_555
H6A C10A 1_555 1_555
H7A C11A 1_555 1_555
H8A C12A 1_555 1_555
N7A Cu1A 1_555 1_555
C23A N7A 1_555 1_555
H17A C23A 1_555 1_555
C24A C23A 1_555 1_555
H18A C24A 1_555 1_555
C25A C24A 1_555 1_555
H19A C25A 1_555 1_555
C26A C25A 1_555 1_555
H20A C26A 1_555 1_555
C27A N7A 1_555 1_555
C28A C27A 1_555 1_555
N8A Cu1A 1_555 1_555
C32A N8A 1_555 1_555
C31A C32A 1_555 1_555
C30A C31A 1_555 1_555
C29A C28A 1_555 1_555
H21A C29A 1_555 1_555
H22A C30A 1_555 1_555
H23A C31A 1_555 1_555
H24A C32A 1_555 1_555
C6 C7 1_555 1_555
C7 C8 1_555 1_555
C11 C12 1_555 1_555
C16 C17 1_555 1_555
C17 C18 1_555 1_555
C21 C22 1_555 1_555
C26 C27 1_555 1_555
C27 C28 1_555 1_555
C31 C32 1_555 1_555
C1A Fe1A 1_555 1_555
C6A C7A 1_555 1_555
C8A N4A 1_555 1_555
C16A C17A 1_555 1_555
C18A N6A 1_555 1_555
C20A C19A 1_555 1_555
C10A C9A 1_555 1_555
C26A C27A 1_555 1_555
C28A N8A 1_555 1_555
C30A C29A 1_555 1_555

#END
