
#######################################################################
#
#                 Cambridge Crystallographic Data Centre
#                                CCDC 
#
#######################################################################
#
# If this CIF has been generated from an entry in the Cambridge 
# Structural Database, then it will include bibliographic, chemical, 
# crystal, experimental, refinement or atomic coordinate data resulting 
# from the CCDC's data processing and validation procedures.
#
#######################################################################

data_EHIHIN
_chemical_formula_moiety         
'C144 H96 Fe4 N24 O36 S12 4-,4(C4 H12 N1 1+),0.5(F6 S1),15(H2 O1)'
_chemical_name_systematic        
"tetrakis(tetramethylammonium) hexakis(\m~2~-4,4'-bis([(pyridin-2-yl)methylidene]amino)biphenyl-2,2'-disulfonate)-tetra-iron hemikis(hexafluorosulfur) clathrate unknown solvate pentadecahydrate"
_symmetry_cell_setting           trigonal
_symmetry_space_group_name_H-M   'P -3 c 1'
_symmetry_Int_Tables_number      165
_space_group_name_Hall           '-P 3 2"c'
loop_
_symmetry_equiv_pos_site_id
_symmetry_equiv_pos_as_xyz
1 x,y,z
2 -y,x-y,z
3 -x+y,-x,z
4 x-y,-y,1/2-z
5 -x,-x+y,1/2-z
6 y,x,1/2-z
7 -x,-y,-z
8 y,-x+y,-z
9 x-y,x,-z
10 -x+y,y,1/2+z
11 x,x-y,1/2+z
12 -y,-x,1/2+z
_cell_length_a                   33.788(12)
_cell_length_b                   33.788(12)
_cell_length_c                   39.938(8)
_cell_angle_alpha                90
_cell_angle_beta                 90
_cell_angle_gamma                120
_cell_volume                     39485.9
_exptl_crystal_colour            purple
_exptl_crystal_description       block
_cell_formula_units_Z            8
loop_
_atom_site_label
_atom_site_type_symbol
_atom_site_fract_x
_atom_site_fract_y
_atom_site_fract_z
N1 N 0.3327(3) 0.4116(3) 0.0189(3)
C1 C 0.3678(4) 0.4281(3) -0.0046(2)
C2 C 0.4038(3) 0.4197(4) -0.0007(2)
H1 H 0.4277 0.4310 -0.0167
C3 C 0.4047(3) 0.3948(4) 0.0267(3)
H2 H 0.4293 0.3890 0.0294
C4 C 0.3696(4) 0.3783(4) 0.0502(2)
H3 H 0.3703 0.3612 0.0689
C5 C 0.3336(3) 0.3867(3) 0.0462(2)
H4 H 0.3096 0.3754 0.0623
C6 C 0.3622(7) 0.4471(6) -0.0355(5)
H5 H 0.3790 0.4512 -0.0555
C7 C 0.3190(5) 0.4785(4) -0.0576(2)
C8 C 0.2819(4) 0.4553(3) -0.0790(3)
H6 H 0.2595 0.4245 -0.0744
C9 C 0.2776(4) 0.4772(5) -0.1070(3)
C10 C 0.3103(5) 0.5223(5) -0.1137(2)
C11 C 0.3474(4) 0.5455(3) -0.0923(3)
H7 H 0.3698 0.5764 -0.0969
C12 C 0.3518(4) 0.5236(4) -0.0643(3)
H8 H 0.3771 0.5395 -0.0497
C13 C 0.3046(4) 0.5508(4) -0.1446(3)
C14 C 0.3258(4) 0.5502(4) -0.1743(4)
C15 C 0.3197(4) 0.5695(4) -0.2031(3)
H9 H 0.3342 0.5691 -0.2234
C16 C 0.2922(4) 0.5894(4) -0.2023(3)
C17 C 0.2710(4) 0.5900(4) -0.1727(3)
H10 H 0.2523 0.6035 -0.1721
C18 C 0.2772(4) 0.5706(4) -0.1438(3)
H11 H 0.2627 0.5710 -0.1236
C19 C 0.2441(8) 0.5878(7) -0.2431(5)
H12 H 0.2205 0.5592 -0.2351
C20 C 0.2379(5) 0.6127(4) -0.2715(2)
N2 N 0.2759(4) 0.6513(4) -0.2842(3)
C21 C 0.2716(4) 0.6735(3) -0.3121(3)
H13 H 0.2975 0.6999 -0.3207
C22 C 0.2291(6) 0.6571(5) -0.3272(3)
H14 H 0.2262 0.6723 -0.3462
C23 C 0.1911(4) 0.6186(5) -0.3145(4)
H15 H 0.1621 0.6074 -0.3249
C24 C 0.1955(4) 0.5963(4) -0.2867(4)
H16 H 0.1695 0.5700 -0.2780
C25 C 0.2074(7) 0.3623(7) -0.0333(4)
C26 C 0.1788(6) 0.3258(7) -0.0485(4)
H17 H 0.1526 0.3245 -0.0584
C27 C 0.1841(8) 0.2899(8) -0.0511(5)
H18 H 0.1601 0.2622 -0.0601
C28 C 0.2239(8) 0.2920(8) -0.0408(5)
H19 H 0.2289 0.2670 -0.0442
C29 C 0.2558(8) 0.3308(8) -0.0258(5)
H20 H 0.2839 0.3337 -0.0185
C30 C 0.2016(8) 0.4075(7) -0.0258(5)
H21 H 0.1768 0.4103 -0.0342
C31 C 0.2280(4) 0.4766(3) -0.0023(3)
C32 C 0.2235(3) 0.4873(3) 0.0306(2)
H22 H 0.2257 0.4700 0.0485
C33 C 0.2159(3) 0.5233(4) 0.0372(2)
C34 C 0.2127(4) 0.5487(3) 0.0110(3)
C35 C 0.2172(4) 0.5380(4) -0.0219(2)
H23 H 0.2150 0.5553 -0.0398
C36 C 0.2248(3) 0.5019(4) -0.0285(2)
H24 H 0.2278 0.4946 -0.0510
C37 C 0.2154(6) 0.3546(7) 0.0513(4)
H25 H 0.2047 0.3351 0.0323
C38 C 0.1980(6) 0.3395(6) 0.0843(4)
H26 H 0.1738 0.3089 0.0871
C39 C 0.2153(7) 0.3682(8) 0.1137(5)
H27 H 0.2019 0.3563 0.1349
C40 C 0.2530(8) 0.4149(8) 0.1112(6)
H28 H 0.2674 0.4348 0.1297
C41 C 0.2658(7) 0.4271(7) 0.0746(5)
C42 C 0.3029(5) 0.4733(6) 0.0665(4)
H29 H 0.3169 0.4951 0.0839
C43 C 0.1812(6) 0.6499(6) 0.0298(3)
C44 C 0.1480(6) 0.6135(6) 0.0216(4)
H30 H 0.1184 0.6103 0.0213
C45 C 0.1542(6) 0.5733(6) 0.0116(4)
C46 C 0.2015(6) 0.5843(6) 0.0173(4)
C47 C 0.2369(8) 0.6280(8) 0.0240(5)
H31 H 0.2681 0.6357 0.0228
C48 C 0.2246(7) 0.6593(8) 0.0324(4)
H32 H 0.2473 0.6885 0.0403
N3 N 0.3308(5) 0.4576(5) -0.0315(3)
N4 N 0.2891(4) 0.6115(4) -0.2291(3)
N5 N 0.2458(6) 0.3717(5) -0.0206(3)
N6 N 0.2302(5) 0.4351(5) -0.0095(3)
N7 N 0.2499(4) 0.4011(5) 0.0494(3)
N8 N 0.3169(5) 0.4850(5) 0.0362(3)
O1 O 0.2009(5) 0.4029(6) -0.1162(3)
O2 O 0.1982(5) 0.4730(5) -0.1187(3)
O3 O 0.2343(4) 0.4555(4) -0.1630(4)
O4 O 0.3448(6) 0.4882(7) -0.1693(4)
O5 O 0.4026(6) 0.5590(6) -0.1615(4)
O6 O 0.3809(5) 0.5353(5) -0.2182(4)
O7 O 0.2152(5) 0.4991(6) 0.0967(4)
O8 O 0.1692(6) 0.5347(5) 0.0848(4)
O9 O 0.2543(6) 0.5799(6) 0.0812(3)
O10 O 0.0633(6) 0.5204(6) 0.0072(4)
O11 O 0.1143(5) 0.5192(5) -0.0395(4)
O12 O 0.1051(6) 0.4847(6) 0.0164(4)
S2 S 0.2209(2) 0.4495(2) -0.12673(14)
S3 S 0.3657(3) 0.5290(3) -0.18016(19)
S4 S 0.2111(2) 0.5325(2) 0.08052(14)
S5 S 0.1062(2) 0.5211(3) -0.00028(18)
Fe1 Fe 0.28455(9) 0.42629(8) 0.00691(6)
Fe2 Fe 0.3333 0.6667 -0.25544(12)
N1B N 0.0789(4) 0.6673(3) 0.0189(3)
N1A N 0.5884(3) 0.9211(4) 0.0189(3)
C1B C 0.0603(5) 0.6322(4) -0.0046(2)
C1A C 0.5719(3) 0.9397(5) -0.0046(2)
C2B C 0.0159(5) 0.5962(3) -0.0007(2)
C2A C 0.5803(4) 0.9841(5) -0.0007(2)
H1B H 0.0033 0.5723 -0.0167
H1A H 0.5690 0.9967 -0.0167
C3B C -0.0099(5) 0.5953(3) 0.0267(3)
C3A C 0.6052(4) 1.0099(5) 0.0267(3)
H2B H -0.0403 0.5707 0.0294
H2A H 0.6110 1.0403 0.0294
C4B C 0.0087(6) 0.6304(4) 0.0502(2)
C4A C 0.6217(4) 0.9913(6) 0.0502(2)
H3B H -0.0091 0.6297 0.0689
H3A H 0.6388 1.0091 0.0689
C5B C 0.0531(4) 0.6664(3) 0.0462(2)
C5A C 0.6133(3) 0.9469(4) 0.0462(2)
H4B H 0.0658 0.6904 0.0623
H4A H 0.6246 0.9342 0.0623
C6B C 0.0849(9) 0.6378(7) -0.0355(5)
C6A C 0.5529(6) 0.9151(9) -0.0355(5)
H5A H 0.5488 0.9278 -0.0555
H5B H 0.0722 0.6210 -0.0555
C7B C 0.1595(6) 0.6810(5) -0.0576(2)
C7A C 0.5215(4) 0.8405(6) -0.0576(2)
C8B C 0.1734(5) 0.7181(4) -0.0790(3)
C8A C 0.5447(3) 0.8266(5) -0.0790(3)
H6A H 0.5755 0.8350 -0.0744
H6B H 0.1650 0.7405 -0.0744
C9B C 0.1996(6) 0.7224(4) -0.1070(3)
C9A C 0.5228(5) 0.8004(6) -0.1070(3)
C10B C 0.2120(7) 0.6897(5) -0.1137(2)
C10A C 0.4777(5) 0.7880(7) -0.1137(2)
C11B C 0.1981(5) 0.6526(4) -0.0923(3)
C11A C 0.4545(3) 0.8019(5) -0.0923(3)
H7B H 0.2066 0.6302 -0.0969
H7A H 0.4236 0.7934 -0.0969
C12B C 0.1718(6) 0.6482(4) -0.0643(3)
C12A C 0.4764(4) 0.8282(6) -0.0643(3)
H8B H 0.1624 0.6229 -0.0497
H8A H 0.4605 0.8376 -0.0497
C13B C 0.2462(6) 0.6954(4) -0.1446(3)
C13A C 0.4492(4) 0.7538(6) -0.1446(3)
C14B C 0.2244(6) 0.6742(4) -0.1743(4)
C14A C 0.4498(4) 0.7756(6) -0.1743(4)
C15B C 0.2498(6) 0.6803(4) -0.2031(3)
C15A C 0.4305(4) 0.7502(6) -0.2031(3)
H9A H 0.4309 0.7651 -0.2234
H9B H 0.2349 0.6658 -0.2234
C16B C 0.2972(6) 0.7078(4) -0.2023(3)
C16A C 0.4106(4) 0.7028(6) -0.2023(3)
C17A C 0.4100(4) 0.6810(6) -0.1727(3)
C17B C 0.3190(6) 0.7290(4) -0.1727(3)
H10A H 0.3965 0.6488 -0.1721
H10B H 0.3512 0.7477 -0.1721
C18A C 0.4294(4) 0.7066(6) -0.1438(3)
C18B C 0.2934(6) 0.7228(4) -0.1438(3)
H11A H 0.4290 0.6917 -0.1236
H11B H 0.3083 0.7373 -0.1236
C19B C 0.3437(11) 0.7559(8) -0.2431(5)
C19A C 0.4122(7) 0.6563(11) -0.2431(5)
H12B H 0.3387 0.7795 -0.2351
H12A H 0.4408 0.6613 -0.2351
C20B C 0.3748(6) 0.7621(5) -0.2715(2)
C20A C 0.3873(4) 0.6252(6) -0.2715(2)
N2B N 0.3754(6) 0.7241(4) -0.2842(3)
N2A N 0.3487(4) 0.6246(6) -0.2842(3)
C21A C 0.3265(3) 0.5981(5) -0.3121(3)
C21B C 0.4019(5) 0.7284(4) -0.3121(3)
H13A H 0.3001 0.5976 -0.3207
H13B H 0.4024 0.7025 -0.3207
C22A C 0.3429(5) 0.5720(8) -0.3272(3)
C22B C 0.4280(8) 0.7709(6) -0.3272(3)
H14A H 0.3277 0.5539 -0.3462
H14B H 0.4461 0.7738 -0.3462
C23A C 0.3814(5) 0.5725(6) -0.3145(4)
C23B C 0.4275(6) 0.8089(4) -0.3145(4)
H15A H 0.3926 0.5547 -0.3249
H15B H 0.4453 0.8379 -0.3249
C24A C 0.4037(4) 0.5992(6) -0.2867(4)
C24B C 0.4008(6) 0.8045(4) -0.2867(4)
H16A H 0.4300 0.5995 -0.2780
H16B H 0.4005 0.8305 -0.2780
C25B C 0.1549(10) 0.7926(7) -0.0333(4)
C25A C 0.6377(7) 0.8451(10) -0.0333(4)
C26B C 0.1470(9) 0.8212(6) -0.0485(4)
C26A C 0.6742(7) 0.8530(9) -0.0485(4)
H17B H 0.1719 0.8474 -0.0584
H17A H 0.6755 0.8281 -0.0584
C27B C 0.1058(11) 0.8159(8) -0.0511(5)
C27A C 0.7101(8) 0.8942(11) -0.0511(5)
H18B H 0.1021 0.8399 -0.0601
H18A H 0.7378 0.8979 -0.0601
C28B C 0.0681(11) 0.7761(8) -0.0408(5)
C28A C 0.7080(8) 0.9319(11) -0.0408(5)
H19B H 0.0381 0.7711 -0.0442
H19A H 0.7330 0.9619 -0.0442
C29B C 0.0750(11) 0.7442(8) -0.0258(5)
C29A C 0.6692(8) 0.9250(11) -0.0258(5)
H20B H 0.0498 0.7161 -0.0185
H20A H 0.6663 0.9502 -0.0185
C30B C 0.2059(11) 0.7984(8) -0.0258(5)
C30A C 0.5925(7) 0.7941(11) -0.0258(5)
H21B H 0.2335 0.8232 -0.0342
H21A H 0.5897 0.7665 -0.0342
C31B C 0.2486(5) 0.7720(4) -0.0023(3)
C31A C 0.5234(3) 0.7514(5) -0.0023(3)
C32B C 0.2638(4) 0.7765(3) 0.0306(2)
C32A C 0.5127(3) 0.7362(4) 0.0306(2)
H22B H 0.2443 0.7743 0.0485
H22A H 0.5300 0.7557 0.0485
C33B C 0.3074(5) 0.7841(3) 0.0372(2)
C33A C 0.4767(4) 0.6926(5) 0.0372(2)
C34B C 0.3360(5) 0.7873(4) 0.0110(3)
C34A C 0.4513(3) 0.6640(5) 0.0110(3)
C35B C 0.3208(6) 0.7828(4) -0.0219(2)
C35A C 0.4620(4) 0.6792(6) -0.0219(2)
H23B H 0.3403 0.7850 -0.0398
H23A H 0.4447 0.6597 -0.0398
C36B C 0.2771(5) 0.7752(3) -0.0285(2)
C36A C 0.4981(4) 0.7229(5) -0.0285(2)
H24B H 0.2668 0.7722 -0.0510
H24A H 0.5054 0.7332 -0.0510
C37A C 0.6454(7) 0.8608(9) 0.0513(4)
C37B C 0.1392(9) 0.7846(6) 0.0513(4)
H25A H 0.6649 0.8696 0.0323
H25B H 0.1304 0.7953 0.0323
C38A C 0.6605(6) 0.8585(8) 0.0843(4)
C38B C 0.1415(8) 0.8020(6) 0.0843(4)
H26B H 0.1351 0.8262 0.0871
H26A H 0.6911 0.8649 0.0871
C39A C 0.6318(8) 0.8471(11) 0.1137(5)
C39B C 0.1529(11) 0.7847(7) 0.1137(5)
H27B H 0.1544 0.7981 0.1349
H27A H 0.6437 0.8456 0.1349
C40A C 0.5851(8) 0.8381(11) 0.1112(6)
C40B C 0.1619(11) 0.7470(8) 0.1112(6)
H28B H 0.1674 0.7326 0.1297
H28A H 0.5652 0.8326 0.1297
C41A C 0.5729(7) 0.8387(10) 0.0746(5)
C41B C 0.1613(10) 0.7342(7) 0.0746(5)
C42A C 0.5267(6) 0.8296(8) 0.0665(4)
C42B C 0.1704(8) 0.6971(5) 0.0665(4)
H29B H 0.1782 0.6831 0.0839
H29A H 0.5049 0.8218 0.0839
C43B C 0.4687(8) 0.8188(6) 0.0298(3)
C43A C 0.3501(6) 0.5313(8) 0.0298(3)
C44B C 0.4655(8) 0.8520(6) 0.0216(4)
C44A C 0.3865(6) 0.5345(8) 0.0216(4)
H30A H 0.3897 0.5081 0.0213
H30B H 0.4919 0.8816 0.0213
C45B C 0.4191(8) 0.8458(6) 0.0116(4)
C45A C 0.4267(6) 0.5809(8) 0.0116(4)
C46B C 0.3828(8) 0.7985(6) 0.0173(4)
C46A C 0.4157(6) 0.6172(8) 0.0173(4)
C47B C 0.3911(11) 0.7631(8) 0.0240(5)
C47A C 0.3720(8) 0.6089(11) 0.0240(5)
H31B H 0.3676 0.7319 0.0228
H31A H 0.3643 0.6324 0.0228
C48B C 0.4347(11) 0.7754(7) 0.0324(4)
C48A C 0.3407(8) 0.5653(11) 0.0324(4)
H32B H 0.4412 0.7527 0.0403
H32A H 0.3115 0.5588 0.0403
N3B N 0.1268(7) 0.6692(5) -0.0315(3)
N3A N 0.5424(5) 0.8732(7) -0.0315(3)
N4B N 0.3224(6) 0.7109(4) -0.2291(3)
N4A N 0.3885(4) 0.6776(6) -0.2291(3)
N5B N 0.1259(8) 0.7542(6) -0.0206(3)
N5A N 0.6283(5) 0.8741(8) -0.0206(3)
N6B N 0.2049(7) 0.7698(5) -0.0095(3)
N6A N 0.5649(5) 0.7951(7) -0.0095(3)
N7A N 0.5989(5) 0.8488(6) 0.0494(3)
N7B N 0.1512(6) 0.7501(4) 0.0494(3)
N8A N 0.5150(5) 0.8319(7) 0.0362(3)
N8B N 0.1681(7) 0.6831(5) 0.0362(3)
O1A O 0.5971(6) 0.7980(8) -0.1162(3)
O1B O 0.2020(8) 0.7991(5) -0.1162(3)
O2A O 0.5270(5) 0.7252(7) -0.1187(3)
O2B O 0.2748(7) 0.8018(5) -0.1187(3)
O3A O 0.5445(4) 0.7788(6) -0.1630(4)
O3B O 0.2212(6) 0.7657(4) -0.1630(4)
O4A O 0.5118(7) 0.8566(9) -0.1693(4)
O4B O 0.1434(9) 0.6552(6) -0.1693(4)
O5A O 0.4410(6) 0.8436(8) -0.1615(4)
O5B O 0.1564(8) 0.5974(6) -0.1615(4)
O6A O 0.4647(5) 0.8456(7) -0.2182(4)
O6B O 0.1544(7) 0.6191(5) -0.2182(4)
O7A O 0.5009(6) 0.7161(8) 0.0967(4)
O7B O 0.2839(8) 0.7848(5) 0.0967(4)
O8A O 0.4653(5) 0.6345(8) 0.0848(4)
O8B O 0.3655(8) 0.8308(6) 0.0848(4)
O9A O 0.4201(6) 0.6744(8) 0.0812(3)
O9B O 0.3256(8) 0.7457(6) 0.0812(3)
O10A O 0.4796(6) 0.5429(8) 0.0072(4)
O10B O 0.4571(8) 0.9367(6) 0.0072(4)
O11A O 0.4808(5) 0.5951(7) -0.0395(4)
O11B O 0.4049(7) 0.8857(5) -0.0395(4)
O12A O 0.5153(6) 0.6204(8) 0.0164(4)
O12B O 0.3796(8) 0.8949(6) 0.0164(4)
S2A S 0.5505(2) 0.7714(3) -0.12673(14)
S2B S 0.2286(3) 0.7791(2) -0.12673(14)
S3A S 0.4710(3) 0.8367(4) -0.18016(19)
S3B S 0.1633(4) 0.6343(3) -0.18016(19)
S4A S 0.4675(2) 0.6786(3) 0.08052(14)
S4B S 0.3214(3) 0.7889(2) 0.08052(14)
S5A S 0.4789(3) 0.5851(4) -0.00028(18)
S5B S 0.4149(4) 0.8938(2) -0.00028(18)
Fe1B Fe 0.14174(12) 0.71545(9) 0.00691(6)
Fe1A Fe 0.57371(8) 0.85826(12) 0.00691(6)
S1 S 0.3333 0.6667 -0.0603(5)
F1 F 0.3333 0.6667 -0.0244(5)
F2 F 0.3333 0.6667 -0.0960(5)
F3 F 0.340(4) 0.7117(17) -0.0603(5)
F3A F 0.2883(17) 0.6283(43) -0.0603(5)
F3B F 0.3717(43) 0.660(4) -0.0603(5)
loop_
_geom_bond_atom_site_label_1
_geom_bond_atom_site_label_2
_geom_bond_site_symmetry_1
_geom_bond_site_symmetry_2
N1 C1 1_555 1_555
C1 C2 1_555 1_555
C2 H1 1_555 1_555
C3 C2 1_555 1_555
H2 C3 1_555 1_555
C4 C3 1_555 1_555
H3 C4 1_555 1_555
C5 N1 1_555 1_555
H4 C5 1_555 1_555
C6 C1 1_555 1_555
H5 C6 1_555 1_555
C7 C8 1_555 1_555
C8 H6 1_555 1_555
C9 C8 1_555 1_555
C10 C9 1_555 1_555
C11 C10 1_555 1_555
H7 C11 1_555 1_555
C12 C7 1_555 1_555
H8 C12 1_555 1_555
C13 C10 1_555 1_555
C14 C13 1_555 1_555
C15 C14 1_555 1_555
H9 C15 1_555 1_555
C16 C15 1_555 1_555
C17 C16 1_555 1_555
H10 C17 1_555 1_555
C18 C13 1_555 1_555
H11 C18 1_555 1_555
C19 H12 1_555 1_555
C20 C19 1_555 1_555
N2 C20 1_555 1_555
C21 N2 1_555 1_555
H13 C21 1_555 1_555
C22 C21 1_555 1_555
H14 C22 1_555 1_555
C23 C22 1_555 1_555
H15 C23 1_555 1_555
C24 C20 1_555 1_555
H16 C24 1_555 1_555
C25 C26 1_555 1_555
C26 H17 1_555 1_555
C27 C26 1_555 1_555
H18 C27 1_555 1_555
C28 C27 1_555 1_555
H19 C28 1_555 1_555
C29 C28 1_555 1_555
H20 C29 1_555 1_555
C30 C25 1_555 1_555
H21 C30 1_555 1_555
C31 C32 1_555 1_555
C32 H22 1_555 1_555
C33 C32 1_555 1_555
C34 C33 1_555 1_555
C35 C34 1_555 1_555
H23 C35 1_555 1_555
C36 C31 1_555 1_555
H24 C36 1_555 1_555
C37 H25 1_555 1_555
C38 C37 1_555 1_555
H26 C38 1_555 1_555
C39 C38 1_555 1_555
H27 C39 1_555 1_555
C40 C39 1_555 1_555
H28 C40 1_555 1_555
C41 C40 1_555 1_555
C42 C41 1_555 1_555
H29 C42 1_555 1_555
C43 C44 1_555 1_555
C44 H30 1_555 1_555
C45 C44 1_555 1_555
C46 C34 1_555 1_555
C47 C46 1_555 1_555
H31 C47 1_555 1_555
C48 C43 1_555 1_555
H32 C48 1_555 1_555
S1 F1 1_555 1_555
F2 S1 1_555 1_555
F3 S1 1_555 1_555
N3 C6 1_555 1_555
N4 C16 1_555 1_555
N5 C25 1_555 1_555
N6 C30 1_555 1_555
N7 C37 1_555 1_555
N8 C42 1_555 1_555
O1 S2 1_555 1_555
O2 S2 1_555 1_555
O3 S2 1_555 1_555
O4 S3 1_555 1_555
O5 S3 1_555 1_555
O6 S3 1_555 1_555
O7 S4 1_555 1_555
O8 S4 1_555 1_555
O9 S4 1_555 1_555
O10 S5 1_555 1_555
O11 S5 1_555 1_555
O12 S5 1_555 1_555
S2 C9 1_555 1_555
S3 C14 1_555 1_555
S4 C33 1_555 1_555
S5 C45 1_555 1_555
Fe1 N1 1_555 1_555
Fe2 N2 1_555 1_555
N1B C1B 1_555 1_555
N1A C1A 1_555 1_555
C1B C2B 1_555 1_555
C1A C2A 1_555 1_555
C2B H1B 1_555 1_555
C2A H1A 1_555 1_555
C3B C2B 1_555 1_555
C3A C2A 1_555 1_555
H2B C3B 1_555 1_555
H2A C3A 1_555 1_555
C4B C3B 1_555 1_555
C4A C3A 1_555 1_555
H3B C4B 1_555 1_555
H3A C4A 1_555 1_555
C5B N1B 1_555 1_555
C5A N1A 1_555 1_555
H4B C5B 1_555 1_555
H4A C5A 1_555 1_555
C6B C1B 1_555 1_555
C6A C1A 1_555 1_555
H5A C6A 1_555 1_555
H5B C6B 1_555 1_555
C7B C8B 1_555 1_555
C7A C8A 1_555 1_555
C8B H6B 1_555 1_555
C8A H6A 1_555 1_555
C9B C8B 1_555 1_555
C9A C8A 1_555 1_555
C10B C9B 1_555 1_555
C10A C9A 1_555 1_555
C11B C10B 1_555 1_555
C11A C10A 1_555 1_555
H7B C11B 1_555 1_555
H7A C11A 1_555 1_555
C12B C7B 1_555 1_555
C12A C7A 1_555 1_555
H8B C12B 1_555 1_555
H8A C12A 1_555 1_555
C13B C10B 1_555 1_555
C13A C10A 1_555 1_555
C14B C13B 1_555 1_555
C14A C13A 1_555 1_555
C15B C14B 1_555 1_555
C15A C14A 1_555 1_555
H9A C15A 1_555 1_555
H9B C15B 1_555 1_555
C16B C15B 1_555 1_555
C16A C15A 1_555 1_555
C17A C16A 1_555 1_555
C17B C16B 1_555 1_555
H10A C17A 1_555 1_555
H10B C17B 1_555 1_555
C18A C13A 1_555 1_555
C18B C13B 1_555 1_555
H11A C18A 1_555 1_555
H11B C18B 1_555 1_555
C19B H12B 1_555 1_555
C19A H12A 1_555 1_555
C20B C19B 1_555 1_555
C20A C19A 1_555 1_555
N2B Fe2 1_555 1_555
N2A Fe2 1_555 1_555
C21A N2A 1_555 1_555
C21B N2B 1_555 1_555
H13A C21A 1_555 1_555
H13B C21B 1_555 1_555
C22A C21A 1_555 1_555
C22B C21B 1_555 1_555
H14A C22A 1_555 1_555
H14B C22B 1_555 1_555
C23A C22A 1_555 1_555
C23B C22B 1_555 1_555
H15A C23A 1_555 1_555
H15B C23B 1_555 1_555
C24A C20A 1_555 1_555
C24B C20B 1_555 1_555
H16A C24A 1_555 1_555
H16B C24B 1_555 1_555
C25B C26B 1_555 1_555
C25A C26A 1_555 1_555
C26B H17B 1_555 1_555
C26A H17A 1_555 1_555
C27B C26B 1_555 1_555
C27A C26A 1_555 1_555
H18B C27B 1_555 1_555
H18A C27A 1_555 1_555
C28B C27B 1_555 1_555
C28A C27A 1_555 1_555
H19B C28B 1_555 1_555
H19A C28A 1_555 1_555
C29B C28B 1_555 1_555
C29A C28A 1_555 1_555
H20B C29B 1_555 1_555
H20A C29A 1_555 1_555
C30B C25B 1_555 1_555
C30A C25A 1_555 1_555
H21B C30B 1_555 1_555
H21A C30A 1_555 1_555
C31B C32B 1_555 1_555
C31A C32A 1_555 1_555
C32B H22B 1_555 1_555
C32A H22A 1_555 1_555
C33B C32B 1_555 1_555
C33A C32A 1_555 1_555
C34B C33B 1_555 1_555
C34A C33A 1_555 1_555
C35B C34B 1_555 1_555
C35A C34A 1_555 1_555
H23B C35B 1_555 1_555
H23A C35A 1_555 1_555
C36B C31B 1_555 1_555
C36A C31A 1_555 1_555
H24B C36B 1_555 1_555
H24A C36A 1_555 1_555
C37A H25A 1_555 1_555
C37B H25B 1_555 1_555
C38A C37A 1_555 1_555
C38B C37B 1_555 1_555
H26B C38B 1_555 1_555
H26A C38A 1_555 1_555
C39A C38A 1_555 1_555
C39B C38B 1_555 1_555
H27B C39B 1_555 1_555
H27A C39A 1_555 1_555
C40A C39A 1_555 1_555
C40B C39B 1_555 1_555
H28B C40B 1_555 1_555
H28A C40A 1_555 1_555
C41A C40A 1_555 1_555
C41B C40B 1_555 1_555
C42A C41A 1_555 1_555
C42B C41B 1_555 1_555
H29B C42B 1_555 1_555
H29A C42A 1_555 1_555
C43B C44B 1_555 1_555
C43A N8 1_555 1_555
C44B H30B 1_555 1_555
C44A C43A 1_555 1_555
H30A C44A 1_555 1_555
C45B C44B 1_555 1_555
C45A C44A 1_555 1_555
C46B C34B 1_555 1_555
C46A C34A 1_555 1_555
C47B C46B 1_555 1_555
C47A C46A 1_555 1_555
H31B C47B 1_555 1_555
H31A C47A 1_555 1_555
C48B C43B 1_555 1_555
C48A C43A 1_555 1_555
H32B C48B 1_555 1_555
H32A C48A 1_555 1_555
F3A S1 1_555 1_555
F3B S1 1_555 1_555
N3B C6B 1_555 1_555
N3A C6A 1_555 1_555
N4B Fe2 1_555 1_555
N4A Fe2 1_555 1_555
N5B C25B 1_555 1_555
N5A C25A 1_555 1_555
N6B C30B 1_555 1_555
N6A C30A 1_555 1_555
N7A C37A 1_555 1_555
N7B C37B 1_555 1_555
N8A C42A 1_555 1_555
N8B C43 1_555 1_555
O1A S2A 1_555 1_555
O1B S2B 1_555 1_555
O2A S2A 1_555 1_555
O2B S2B 1_555 1_555
O3A S2A 1_555 1_555
O3B S2B 1_555 1_555
O4A S3A 1_555 1_555
O4B S3B 1_555 1_555
O5A S3A 1_555 1_555
O5B S3B 1_555 1_555
O6A S3A 1_555 1_555
O6B S3B 1_555 1_555
O7A S4A 1_555 1_555
O7B S4B 1_555 1_555
O8A S4A 1_555 1_555
O8B S4B 1_555 1_555
O9A S4A 1_555 1_555
O9B S4B 1_555 1_555
O10A S5A 1_555 1_555
O10B S5B 1_555 1_555
O11A S5A 1_555 1_555
O11B S5B 1_555 1_555
O12A S5A 1_555 1_555
O12B S5B 1_555 1_555
S2A C9A 1_555 1_555
S2B C9B 1_555 1_555
S3A C14A 1_555 1_555
S3B C14B 1_555 1_555
S4A C33A 1_555 1_555
S4B C33B 1_555 1_555
S5A C45A 1_555 1_555
S5B C45B 1_555 1_555
Fe1B N1B 1_555 1_555
Fe1A N1A 1_555 1_555
C4 C5 1_555 1_555
C7 N3 1_555 1_555
C11 C12 1_555 1_555
C17 C18 1_555 1_555
C19 N4 1_555 1_555
C23 C24 1_555 1_555
C29 N5 1_555 1_555
C31 N6 1_555 1_555
C35 C36 1_555 1_555
C41 N7 1_555 1_555
C45 C46 1_555 1_555
C47 C48 1_555 1_555
N3 Fe1 1_555 1_555
N4 Fe2 1_555 1_555
N5 Fe1 1_555 1_555
N6 Fe1 1_555 1_555
N7 Fe1 1_555 1_555
N8 Fe1 1_555 1_555
C4B C5B 1_555 1_555
C4A C5A 1_555 1_555
C7B N3B 1_555 1_555
C7A N3A 1_555 1_555
C11B C12B 1_555 1_555
C11A C12A 1_555 1_555
C16B N4B 1_555 1_555
C16A N4A 1_555 1_555
C17A C18A 1_555 1_555
C17B C18B 1_555 1_555
C19B N4B 1_555 1_555
C19A N4A 1_555 1_555
C20B N2B 1_555 1_555
C20A N2A 1_555 1_555
C23A C24A 1_555 1_555
C23B C24B 1_555 1_555
C29B N5B 1_555 1_555
C29A N5A 1_555 1_555
C31B N6B 1_555 1_555
C31A N6A 1_555 1_555
C35B C36B 1_555 1_555
C35A C36A 1_555 1_555
C41A N7A 1_555 1_555
C41B N7B 1_555 1_555
C42B N8B 1_555 1_555
C43B N8A 1_555 1_555
C45B C46B 1_555 1_555
C45A C46A 1_555 1_555
C47B C48B 1_555 1_555
C47A C48A 1_555 1_555
N3B Fe1B 1_555 1_555
N3A Fe1A 1_555 1_555
N5B Fe1B 1_555 1_555
N5A Fe1A 1_555 1_555
N6B Fe1B 1_555 1_555
N6A Fe1A 1_555 1_555
N7A Fe1A 1_555 1_555
N7B Fe1B 1_555 1_555
N8A Fe1A 1_555 1_555
N8B Fe1B 1_555 1_555

#END
