
#######################################################################
#
#                 Cambridge Crystallographic Data Centre
#                                CCDC 
#
#######################################################################
#
# If this CIF has been generated from an entry in the Cambridge 
# Structural Database, then it will include bibliographic, chemical, 
# crystal, experimental, refinement or atomic coordinate data resulting 
# from the CCDC's data processing and validation procedures.
#
#######################################################################

data_EQESIE
_chemical_formula_moiety         'C72 H42 Br4 Cu2 N6 O12'
_chemical_name_systematic        
'tetrabromo-bis(\m-1,3,5-triquinolin-6-yl benzene-1,3,5-tricarboxylate)-di-copper(ii)'
_symmetry_cell_setting           orthorhombic
_symmetry_space_group_name_H-M   'C m c a'
_symmetry_Int_Tables_number      64
_space_group_name_Hall           '-C 2ac 2'
loop_
_symmetry_equiv_pos_site_id
_symmetry_equiv_pos_as_xyz
1 x,y,z
2 -x,1/2-y,1/2+z
3 -x,1/2+y,1/2-z
4 x,-y,-z
5 1/2+x,1/2+y,z
6 1/2-x,-y,1/2+z
7 1/2-x,y,1/2-z
8 1/2+x,1/2-y,-z
9 -x,-y,-z
10 x,1/2+y,1/2-z
11 x,1/2-y,1/2+z
12 -x,y,z
13 1/2-x,1/2-y,-z
14 1/2+x,y,1/2-z
15 1/2+x,-y,1/2+z
16 1/2-x,1/2+y,z
_cell_length_a                   26.8621(18)
_cell_length_b                   14.5732(8)
_cell_length_c                   15.1408(7)
_cell_angle_alpha                90
_cell_angle_beta                 90
_cell_angle_gamma                90
_cell_volume                     5927.12
_exptl_crystal_colour            brown
_exptl_crystal_description       BLOCK
_cell_formula_units_Z            4
loop_
_atom_site_label
_atom_site_type_symbol
_atom_site_fract_x
_atom_site_fract_y
_atom_site_fract_z
Cu1 Cu 1.33469(15) 0.0000 0.5000
O1 O 1.1315(4) 0.1521(9) 0.2881(7)
O2 O 1.0927(4) 0.1506(12) 0.4169(7)
O3 O 0.9630(6) 0.1178(15) 0.0121(8)
N1 N 1.3179(6) 0.1304(12) 0.4462(12)
C1 C 1.3410(7) 0.2024(15) 0.4591(13)
H1 H 1.3702 0.1975 0.4943
C2 C 1.3298(7) 0.2880(14) 0.4288(12)
H2 H 1.3521 0.3379 0.4361
C3 C 1.2829(6) 0.2992(13) 0.3856(12)
H3 H 1.2725 0.3569 0.3631
C4 C 1.2533(5) 0.2212(10) 0.3781(9)
C5 C 1.2037(6) 0.2259(12) 0.3374(9)
H4 H 1.1903 0.2829 0.3183
C6 C 1.1790(6) 0.1517(12) 0.3282(10)
C7 C 1.1949(9) 0.0658(17) 0.3577(13)
H5 H 1.1752 0.0123 0.3497
C8 C 1.2405(7) 0.0623(13) 0.3991(16)
H6 H 1.2519 0.0047 0.4206
C9 C 1.2707(6) 0.1380(12) 0.4110(10)
C10 C 1.0921(5) 0.1504(14) 0.3374(10)
C11 C 1.0000 0.137(3) 0.0480(15)
C12 C 1.0000 0.1528(17) 0.3337(13)
H7 H 1.0000 0.1584 0.3962
C13 C 1.0446(5) 0.1484(12) 0.2863(8)
C14 C 1.0445(5) 0.1442(11) 0.1949(9)
H8 H 1.0752 0.1461 0.1637
C15 C 1.0000 0.1374(15) 0.1485(11)
C16 C 1.0000 0.1105(16) -0.1395(13)
N2 N 0.9214(9) 0.078(3) -0.3446(15)
C17 C 0.9583(9) 0.082(2) -0.3996(19)
C18 C 1.0072(11) 0.096(2) -0.387(2)
C19 C 1.0220(10) 0.108(2) -0.294(2)
C20 C 0.9855(8) 0.1020(17) -0.2304(15)
C21 C 0.9600(9) 0.1049(17) -0.0786(16)
C22 C 0.9065(12) 0.086(2) -0.107(2)
C23 C 0.8956(11) 0.076(2) -0.1890(18)
C24 C 0.9354(11) 0.082(2) -0.2571(15)
H9 H 0.8804 0.0819 -0.0639
H10 H 1.0304 0.0982 -0.4345
H11 H 0.9494 0.0733 -0.4604
H12 H 0.8618 0.0654 -0.2073
Br1 Br 1.35968(12) 0.0522(2) 0.64231(16)
O1K O 0.8685(4) 0.1521(9) 0.2881(7)
O2K O 0.9073(4) 0.1506(12) 0.4169(7)
O3K O 1.0370(6) 0.1178(15) 0.0121(8)
N1K N 0.6821(6) 0.1304(12) 0.4462(12)
C1K C 0.6590(7) 0.2024(15) 0.4591(13)
H1K H 0.6298 0.1975 0.4943
C2K C 0.6702(7) 0.2880(14) 0.4288(12)
H2K H 0.6479 0.3379 0.4361
C3K C 0.7171(6) 0.2992(13) 0.3856(12)
H3K H 0.7275 0.3569 0.3631
C4K C 0.7467(5) 0.2212(10) 0.3781(9)
C5K C 0.7963(6) 0.2259(12) 0.3374(9)
H4K H 0.8097 0.2829 0.3183
C6K C 0.8210(6) 0.1517(12) 0.3282(10)
C7K C 0.8051(9) 0.0658(17) 0.3577(13)
H5K H 0.8248 0.0123 0.3497
C8K C 0.7595(7) 0.0623(13) 0.3991(16)
H6K H 0.7481 0.0047 0.4206
C9K C 0.7293(6) 0.1380(12) 0.4110(10)
C10K C 0.9079(5) 0.1504(14) 0.3374(10)
C13K C 0.9554(5) 0.1484(12) 0.2863(8)
C14K C 0.9555(5) 0.1442(11) 0.1949(9)
H8K H 0.9248 0.1461 0.1637
N2K N 1.0786(9) 0.078(3) -0.3446(15)
C17K C 1.0417(9) 0.082(2) -0.3996(19)
C18K C 0.9928(11) 0.096(2) -0.387(2)
C19K C 0.9780(10) 0.108(2) -0.294(2)
C20K C 1.0145(8) 0.1020(17) -0.2304(15)
C21K C 1.0400(9) 0.1049(17) -0.0786(16)
C22K C 1.0935(12) 0.086(2) -0.107(2)
C23K C 1.1044(11) 0.076(2) -0.1890(18)
C24K C 1.0646(11) 0.082(2) -0.2571(15)
H9K H 1.1196 0.0819 -0.0639
H10K H 0.9696 0.0982 -0.4345
H11K H 1.0506 0.0733 -0.4604
H12K H 1.1382 0.0654 -0.2073
Br1C Br 1.35968(12) -0.0522(2) 0.35769(16)
Cu1H Cu 0.66531(15) 0.0000 0.5000
N1C N 1.3179(6) -0.1304(12) 0.5538(12)
O1C O 1.1315(4) -0.1521(9) 0.7119(7)
C6C C 1.1790(6) -0.1517(12) 0.6718(10)
C10C C 1.0921(5) -0.1504(14) 0.6626(10)
O2C O 1.0927(4) -0.1506(12) 0.5831(7)
O3C O 0.9630(6) -0.1178(15) 0.9879(8)
C11C C 1.0000 -0.137(3) 0.9520(15)
C21C C 0.9600(9) -0.1049(17) 1.0786(16)
C1C C 1.3410(7) -0.2024(15) 0.5409(13)
C9C C 1.2707(6) -0.1380(12) 0.5890(10)
H1C H 1.3702 -0.1975 0.5057
C2C C 1.3298(7) -0.2880(14) 0.5712(12)
H2C H 1.3521 -0.3379 0.5639
C3C C 1.2829(6) -0.2992(13) 0.6144(12)
H3C H 1.2725 -0.3569 0.6369
C4C C 1.2533(5) -0.2212(10) 0.6219(9)
C5C C 1.2037(6) -0.2259(12) 0.6626(9)
H4C H 1.1903 -0.2829 0.6817
C7C C 1.1949(9) -0.0658(17) 0.6423(13)
H5C H 1.1752 -0.0123 0.6503
C8C C 1.2405(7) -0.0623(13) 0.6009(16)
H6C H 1.2519 -0.0047 0.5794
C13C C 1.0446(5) -0.1484(12) 0.7137(8)
C15C C 1.0000 -0.1374(15) 0.8515(11)
O3H O 1.0370(6) -0.1178(15) 0.9879(8)
C12C C 1.0000 -0.1528(17) 0.6663(13)
H7C H 1.0000 -0.1584 0.6038
C13H C 0.9554(5) -0.1484(12) 0.7137(8)
C14C C 1.0445(5) -0.1442(11) 0.8051(9)
H8C H 1.0752 -0.1461 0.8363
C14H C 0.9555(5) -0.1442(11) 0.8051(9)
C16C C 1.0000 -0.1105(16) 1.1395(13)
C20C C 0.9855(8) -0.1020(17) 1.2304(15)
C20H C 1.0145(8) -0.1020(17) 1.2304(15)
C21H C 1.0400(9) -0.1049(17) 1.0786(16)
N2C N 0.9214(9) -0.078(3) 1.3446(15)
C17C C 0.9583(9) -0.082(2) 1.3996(19)
C24C C 0.9354(11) -0.082(2) 1.2571(15)
C19H C 0.9780(10) -0.108(2) 1.294(2)
C18C C 1.0072(11) -0.096(2) 1.387(2)
H11C H 0.9494 -0.0733 1.4604
C18H C 0.9928(11) -0.096(2) 1.387(2)
H10H H 0.9696 -0.0982 1.4345
C19C C 1.0220(10) -0.108(2) 1.294(2)
H10C H 1.0304 -0.0982 1.4345
C17H C 1.0417(9) -0.082(2) 1.3996(19)
N2H N 1.0786(9) -0.078(3) 1.3446(15)
C24H C 1.0646(11) -0.082(2) 1.2571(15)
C22C C 0.9065(12) -0.086(2) 1.107(2)
C23C C 0.8956(11) -0.076(2) 1.1890(18)
H9C H 0.8804 -0.0819 1.0639
H12C H 0.8618 -0.0654 1.2073
O1H O 0.8685(4) -0.1521(9) 0.7119(7)
C6H C 0.8210(6) -0.1517(12) 0.6718(10)
C10H C 0.9079(5) -0.1504(14) 0.6626(10)
O2H O 0.9073(4) -0.1506(12) 0.5831(7)
N1H N 0.6821(6) -0.1304(12) 0.5538(12)
C1H C 0.6590(7) -0.2024(15) 0.5409(13)
C9H C 0.7293(6) -0.1380(12) 0.5890(10)
H1H H 0.6298 -0.1975 0.5057
C2H C 0.6702(7) -0.2880(14) 0.5712(12)
H2H H 0.6479 -0.3379 0.5639
C3H C 0.7171(6) -0.2992(13) 0.6144(12)
H3H H 0.7275 -0.3569 0.6369
C4H C 0.7467(5) -0.2212(10) 0.6219(9)
C5H C 0.7963(6) -0.2259(12) 0.6626(9)
H4H H 0.8097 -0.2829 0.6817
C7H C 0.8051(9) -0.0658(17) 0.6423(13)
H5H H 0.8248 -0.0123 0.6503
C8H C 0.7595(7) -0.0623(13) 0.6009(16)
H6H H 0.7481 -0.0047 0.5794
H8H H 0.9248 -0.1461 0.8363
H11H H 1.0506 -0.0733 1.4604
C22H C 1.0935(12) -0.086(2) 1.107(2)
C23H C 1.1044(11) -0.076(2) 1.1890(18)
H9H H 1.1196 -0.0819 1.0639
H12H H 1.1382 -0.0654 1.2073
Br1H Br 0.64032(12) -0.0522(2) 0.35769(16)
Br1K Br 0.64032(12) 0.0522(2) 0.64231(16)
loop_
_geom_bond_atom_site_label_1
_geom_bond_atom_site_label_2
_geom_bond_site_symmetry_1
_geom_bond_site_symmetry_2
Cu1 N1 1_555 1_555
O1 C6 1_555 1_555
O2 C10 1_555 1_555
O3 C11 1_555 1_555
N1 C1 1_555 1_555
C1 H1 1_555 1_555
C2 C1 1_555 1_555
H2 C2 1_555 1_555
C3 C2 1_555 1_555
H3 C3 1_555 1_555
C4 C3 1_555 1_555
C5 C4 1_555 1_555
H4 C5 1_555 1_555
C6 C5 1_555 1_555
C7 C6 1_555 1_555
H5 C7 1_555 1_555
C8 C7 1_555 1_555
H6 C8 1_555 1_555
C9 N1 1_555 1_555
C10 O1 1_555 1_555
C11 C15 1_555 1_555
C12 H7 1_555 1_555
C13 C10 1_555 1_555
C14 C13 1_555 1_555
H8 C14 1_555 1_555
C15 C14 1_555 1_555
C16 C20 1_555 1_555
N2 C17 1_555 1_555
C17 C18 1_555 1_555
C18 C19 1_555 1_555
C19 C20 1_555 1_555
C20 C24 1_555 1_555
C21 O3 1_555 1_555
C22 C21 1_555 1_555
C23 C22 1_555 1_555
C24 N2 1_555 1_555
H9 C22 1_555 1_555
H10 C18 1_555 1_555
H11 C17 1_555 1_555
H12 C23 1_555 1_555
Br1 Cu1 1_555 1_555
O1K C6K 1_555 1_555
O2K C10K 1_555 1_555
O3K C11 1_555 1_555
N1K C1K 1_555 1_555
C1K H1K 1_555 1_555
C2K C1K 1_555 1_555
H2K C2K 1_555 1_555
C3K C2K 1_555 1_555
H3K C3K 1_555 1_555
C4K C3K 1_555 1_555
C5K C4K 1_555 1_555
H4K C5K 1_555 1_555
C6K C5K 1_555 1_555
C7K C6K 1_555 1_555
H5K C7K 1_555 1_555
C8K C7K 1_555 1_555
H6K C8K 1_555 1_555
C9K N1K 1_555 1_555
C10K O1K 1_555 1_555
C13K C12 1_555 1_555
C14K C15 1_555 1_555
H8K C14K 1_555 1_555
N2K C17K 1_555 1_555
C17K C18 1_555 1_555
C18K C17 1_555 1_555
C19K C18K 1_555 1_555
C20K C16 1_555 1_555
C21K C16 1_555 1_555
C22K C21K 1_555 1_555
C23K C22K 1_555 1_555
C24K N2K 1_555 1_555
H9K C22K 1_555 1_555
H10K C18K 1_555 1_555
H11K C17K 1_555 1_555
H12K C23K 1_555 1_555
Br1C Cu1 1_555 1_555
Cu1H N1K 1_555 1_555
N1C Cu1 1_555 1_555
O1C C6C 1_555 1_555
C6C C5C 1_555 1_555
C10C O1C 1_555 1_555
O2C C10C 1_555 1_555
O3C C11C 1_555 1_555
C11C C15C 1_555 1_555
C21C O3C 1_555 1_555
C1C N1C 1_555 1_555
C9C N1C 1_555 1_555
H1C C1C 1_555 1_555
C2C C1C 1_555 1_555
H2C C2C 1_555 1_555
C3C C2C 1_555 1_555
H3C C3C 1_555 1_555
C4C C9C 1_555 1_555
C5C C4C 1_555 1_555
H4C C5C 1_555 1_555
C7C C6C 1_555 1_555
H5C C7C 1_555 1_555
C8C C9C 1_555 1_555
H6C C8C 1_555 1_555
C13C C10C 1_555 1_555
C15C C14C 1_555 1_555
O3H C11C 1_555 1_555
C12C C13C 1_555 1_555
H7C C12C 1_555 1_555
C13H C12C 1_555 1_555
C14C C13C 1_555 1_555
H8C C14C 1_555 1_555
C14H C15C 1_555 1_555
C16C C21C 1_555 1_555
C20C C16C 1_555 1_555
C20H C16C 1_555 1_555
C21H O3H 1_555 1_555
N2C C17C 1_555 1_555
C17C C18C 1_555 1_555
C24C C20C 1_555 1_555
C19H C20H 1_555 1_555
C18C C19C 1_555 1_555
H11C C17C 1_555 1_555
C18H C17C 1_555 1_555
H10H C18H 1_555 1_555
C19C C20C 1_555 1_555
H10C C18C 1_555 1_555
C17H C18C 1_555 1_555
N2H C17H 1_555 1_555
C24H C20H 1_555 1_555
C22C C21C 1_555 1_555
C23C C24C 1_555 1_555
H9C C22C 1_555 1_555
H12C C23C 1_555 1_555
O1H C6H 1_555 1_555
C6H C5H 1_555 1_555
C10H C13H 1_555 1_555
O2H C10H 1_555 1_555
N1H Cu1H 1_555 1_555
C1H N1H 1_555 1_555
C9H N1H 1_555 1_555
H1H C1H 1_555 1_555
C2H C1H 1_555 1_555
H2H C2H 1_555 1_555
C3H C2H 1_555 1_555
H3H C3H 1_555 1_555
C4H C9H 1_555 1_555
C5H C4H 1_555 1_555
H4H C5H 1_555 1_555
C7H C6H 1_555 1_555
H5H C7H 1_555 1_555
C8H C9H 1_555 1_555
H6H C8H 1_555 1_555
H8H C14H 1_555 1_555
H11H C17H 1_555 1_555
C22H C21H 1_555 1_555
C23H C24H 1_555 1_555
H9H C22H 1_555 1_555
H12H C23H 1_555 1_555
Br1H Cu1H 1_555 1_555
Br1K Cu1H 1_555 1_555
C4 C9 1_555 1_555
C8 C9 1_555 1_555
C12 C13 1_555 1_555
C16 C21 1_555 1_555
C23 C24 1_555 1_555
O3K C21K 1_555 1_555
C4K C9K 1_555 1_555
C8K C9K 1_555 1_555
C10K C13K 1_555 1_555
C13K C14K 1_555 1_555
C17K C18K 1_555 1_555
C19K C20K 1_555 1_555
C20K C24K 1_555 1_555
C23K C24K 1_555 1_555
C3C C4C 1_555 1_555
C7C C8C 1_555 1_555
C13H C14H 1_555 1_555
C16C C21H 1_555 1_555
N2C C24C 1_555 1_555
C19H C18H 1_555 1_555
C18H C17H 1_555 1_555
N2H C24H 1_555 1_555
C22C C23C 1_555 1_555
O1H C10H 1_555 1_555
C3H C4H 1_555 1_555
C7H C8H 1_555 1_555
C22H C23H 1_555 1_555

#END
