
#######################################################################
#
#                 Cambridge Crystallographic Data Centre
#                                CCDC 
#
#######################################################################
#
# If this CIF has been generated from an entry in the Cambridge 
# Structural Database, then it will include bibliographic, chemical, 
# crystal, experimental, refinement or atomic coordinate data resulting 
# from the CCDC's data processing and validation procedures.
#
#######################################################################

data_EQESUQ
_chemical_formula_moiety         'C72 H42 Br4 Hg2 N6 O12'
_chemical_name_systematic        
'tetrabromo-bis(\m-1,3,5-triquinolin-6-yl benzene-1,3,5-tricarboxylate)-di-mercury(ii)'
_symmetry_cell_setting           orthorhombic
_symmetry_space_group_name_H-M   'C m c a'
_symmetry_Int_Tables_number      64
_space_group_name_Hall           '-C 2ac 2'
loop_
_symmetry_equiv_pos_site_id
_symmetry_equiv_pos_as_xyz
1 x,y,z
2 -x,1/2-y,1/2+z
3 -x,1/2+y,1/2-z
4 x,-y,-z
5 1/2+x,1/2+y,z
6 1/2-x,-y,1/2+z
7 1/2-x,y,1/2-z
8 1/2+x,1/2-y,-z
9 -x,-y,-z
10 x,1/2+y,1/2-z
11 x,1/2-y,1/2+z
12 -x,y,z
13 1/2-x,1/2-y,-z
14 1/2+x,y,1/2-z
15 1/2+x,-y,1/2+z
16 1/2-x,1/2+y,z
_cell_length_a                   26.8929(9)
_cell_length_b                   14.6597(4)
_cell_length_c                   15.0879(4)
_cell_angle_alpha                90
_cell_angle_beta                 90
_cell_angle_gamma                90
_cell_volume                     5948.28
_exptl_crystal_colour            brown
_exptl_crystal_description       block
_cell_formula_units_Z            4
loop_
_atom_site_label
_atom_site_type_symbol
_atom_site_fract_x
_atom_site_fract_y
_atom_site_fract_z
Hg1 Hg 0.64047(5) 0.5000 1.0000
O1 O 0.9076(5) 0.3492(9) 0.9178(9)
O2 O 0.8690(4) 0.3507(7) 0.7873(7)
O3 O 1.0405(5) 0.3820(10) 0.5149(9)
N1 N 0.6836(5) 0.3573(9) 0.9452(9)
C1 C 0.6587(6) 0.2801(11) 0.9542(11)
H1 H 0.6279 0.2822 0.9849
C2 C 0.6747(6) 0.1948(10) 0.9215(10)
H2 H 0.6542 0.1423 0.9274
C3 C 0.7203(6) 0.1890(12) 0.8809(12)
H3 H 0.7322 0.1327 0.8579
C4 C 0.7494(5) 0.2703(9) 0.8745(10)
C5 C 0.7968(5) 0.2711(10) 0.8369(9)
H4 H 0.8116 0.2158 0.8172
C6 C 0.8216(6) 0.3506(10) 0.8286(10)
C7 C 0.8039(7) 0.4330(13) 0.8587(12)
H5 H 0.8232 0.4873 0.8561
C8 C 0.7558(7) 0.4317(13) 0.8932(12)
H6 H 0.7411 0.4880 0.9099
C9 C 0.7285(5) 0.3534(10) 0.9043(10)
C10 C 0.9086(5) 0.3517(10) 0.8387(10)
C11 C 0.9542(5) 0.3543(9) 0.7863(9)
C12 C 1.0000 0.3515(13) 0.8341(13)
H7 H 1.0000 0.3477 0.8970
C13 C 0.9546(5) 0.3626(8) 0.6952(8)
H8 H 0.9241 0.3649 0.6635
C14 C 1.0000 0.3677(13) 0.6489(12)
C15 C 1.0000 0.3800(15) 0.5528(15)
C16 C 1.0425(9) 0.3919(16) 0.4180(16)
C17 C 1.0000 0.3963(17) 0.1142(16)
N2 N 1.0788(11) 0.4332(18) 0.1571(18)
C18 C 1.0081(7) 0.3802(14) 0.3581(13)
C19 C 1.0175(9) 0.3910(19) 0.2653(18)
C20 C 0.9859(9) 0.3832(19) 0.2046(19)
C21 C 1.0478(12) 0.423(2) 0.098(2)
H9 H 1.0576 0.4341 0.0387
C22 C 1.0681(10) 0.4199(19) 0.2436(18)
C23 C 1.1009(8) 0.4299(19) 0.3073(19)
H10 H 1.1337 0.4451 0.2895
C24 C 1.0925(10) 0.4201(18) 0.4029(18)
H11 H 1.1166 0.4308 0.4477
Br1 Br 0.62943(11) 0.44234(19) 1.15337(17)
O1K O 1.0924(5) 0.3492(9) 0.9178(9)
O2K O 1.1310(4) 0.3507(7) 0.7873(7)
O3K O 0.9595(5) 0.3820(10) 0.5149(9)
N1K N 1.3164(5) 0.3573(9) 0.9452(9)
C1K C 1.3413(6) 0.2801(11) 0.9542(11)
H1K H 1.3721 0.2822 0.9849
C2K C 1.3253(6) 0.1948(10) 0.9215(10)
H2K H 1.3458 0.1423 0.9274
C3K C 1.2797(6) 0.1890(12) 0.8809(12)
H3K H 1.2678 0.1327 0.8579
C4K C 1.2506(5) 0.2703(9) 0.8745(10)
C5K C 1.2032(5) 0.2711(10) 0.8369(9)
H4K H 1.1884 0.2158 0.8172
C6K C 1.1784(6) 0.3506(10) 0.8286(10)
C7K C 1.1961(7) 0.4330(13) 0.8587(12)
H5K H 1.1768 0.4873 0.8561
C8K C 1.2442(7) 0.4317(13) 0.8932(12)
H6K H 1.2589 0.4880 0.9099
C9K C 1.2715(5) 0.3534(10) 0.9043(10)
C10K C 1.0914(5) 0.3517(10) 0.8387(10)
C11K C 1.0458(5) 0.3543(9) 0.7863(9)
C13K C 1.0454(5) 0.3626(8) 0.6952(8)
H8K H 1.0759 0.3649 0.6635
C16K C 0.9575(9) 0.3919(16) 0.4180(16)
N2K N 0.9212(11) 0.4332(18) 0.1571(18)
C18K C 0.9919(7) 0.3802(14) 0.3581(13)
C19K C 0.9825(9) 0.3910(19) 0.2653(18)
C20K C 1.0141(9) 0.3832(19) 0.2046(19)
C21K C 0.9522(12) 0.423(2) 0.098(2)
H9K H 0.9424 0.4341 0.0387
C22K C 0.9319(10) 0.4199(19) 0.2436(18)
C23K C 0.8991(8) 0.4299(19) 0.3073(19)
H10K H 0.8663 0.4451 0.2895
C24K C 0.9075(10) 0.4201(18) 0.4029(18)
H11K H 0.8834 0.4308 0.4477
Br1C Br 0.62943(11) 0.55766(19) 0.84663(17)
Hg1H Hg 1.35953(5) 0.5000 1.0000
N1C N 0.6836(5) 0.6427(9) 1.0548(9)
N1H N 1.3164(5) 0.6427(9) 1.0548(9)
Br1H Br 1.37057(11) 0.55766(19) 0.84663(17)
Br1K Br 1.37057(11) 0.44234(19) 1.15337(17)
O1H O 1.0924(5) 0.6508(9) 1.0822(9)
C10H C 1.0914(5) 0.6483(10) 1.1613(10)
O2H O 1.1310(4) 0.6493(7) 1.2127(7)
C6H C 1.1784(6) 0.6494(10) 1.1714(10)
O3H O 0.9595(5) 0.6180(10) 1.4851(9)
C15C C 1.0000 0.6200(15) 1.4472(15)
C16H C 0.9575(9) 0.6081(16) 1.5820(16)
C1H C 1.3413(6) 0.7199(11) 1.0458(11)
C9H C 1.2715(5) 0.6466(10) 1.0957(10)
H1H H 1.3721 0.7178 1.0151
C2H C 1.3253(6) 0.8052(10) 1.0785(10)
H2H H 1.3458 0.8577 1.0726
C3H C 1.2797(6) 0.8110(12) 1.1191(12)
H3H H 1.2678 0.8673 1.1421
C4H C 1.2506(5) 0.7297(9) 1.1255(10)
C5H C 1.2032(5) 0.7289(10) 1.1631(9)
H4H H 1.1884 0.7842 1.1828
C7H C 1.1961(7) 0.5670(13) 1.1413(12)
H5H H 1.1768 0.5127 1.1439
C8H C 1.2442(7) 0.5683(13) 1.1068(12)
H6H H 1.2589 0.5120 1.0901
C11H C 1.0458(5) 0.6457(9) 1.2137(9)
C12C C 1.0000 0.6485(13) 1.1659(13)
C13H C 1.0454(5) 0.6374(8) 1.3048(8)
H7C H 1.0000 0.6523 1.1030
C11C C 0.9542(5) 0.6457(9) 1.2137(9)
H8H H 1.0759 0.6351 1.3365
C14C C 1.0000 0.6323(13) 1.3511(12)
C13C C 0.9546(5) 0.6374(8) 1.3048(8)
O3C O 1.0405(5) 0.6180(10) 1.4851(9)
C18H C 0.9919(7) 0.6198(14) 1.6419(13)
C24H C 0.9075(10) 0.5799(18) 1.5971(18)
C17C C 1.0000 0.6037(17) 1.8858(16)
C20H C 1.0141(9) 0.6168(19) 1.7954(19)
C21H C 0.9522(12) 0.577(2) 1.902(2)
C20C C 0.9859(9) 0.6168(19) 1.7954(19)
C21C C 1.0478(12) 0.577(2) 1.902(2)
N2H N 0.9212(11) 0.5668(18) 1.8429(18)
C22H C 0.9319(10) 0.5801(19) 1.7564(18)
C19H C 0.9825(9) 0.6090(19) 1.7347(18)
H9H H 0.9424 0.5659 1.9613
C23H C 0.8991(8) 0.5701(19) 1.6927(19)
H10H H 0.8663 0.5549 1.7105
H11H H 0.8834 0.5692 1.5523
O1C O 0.9076(5) 0.6508(9) 1.0822(9)
C10C C 0.9086(5) 0.6483(10) 1.1613(10)
O2C O 0.8690(4) 0.6493(7) 1.2127(7)
C6C C 0.8216(6) 0.6494(10) 1.1714(10)
C16C C 1.0425(9) 0.6081(16) 1.5820(16)
C1C C 0.6587(6) 0.7199(11) 1.0458(11)
C9C C 0.7285(5) 0.6466(10) 1.0957(10)
H1C H 0.6279 0.7178 1.0151
C2C C 0.6747(6) 0.8052(10) 1.0785(10)
H2C H 0.6542 0.8577 1.0726
C3C C 0.7203(6) 0.8110(12) 1.1191(12)
H3C H 0.7322 0.8673 1.1421
C4C C 0.7494(5) 0.7297(9) 1.1255(10)
C5C C 0.7968(5) 0.7289(10) 1.1631(9)
H4C H 0.8116 0.7842 1.1828
C7C C 0.8039(7) 0.5670(13) 1.1413(12)
H5C H 0.8232 0.5127 1.1439
C8C C 0.7558(7) 0.5683(13) 1.1068(12)
H6C H 0.7411 0.5120 1.0901
H8C H 0.9241 0.6351 1.3365
C18C C 1.0081(7) 0.6198(14) 1.6419(13)
C24C C 1.0925(10) 0.5799(18) 1.5971(18)
N2C N 1.0788(11) 0.5668(18) 1.8429(18)
C22C C 1.0681(10) 0.5801(19) 1.7564(18)
C19C C 1.0175(9) 0.6090(19) 1.7347(18)
H9C H 1.0576 0.5659 1.9613
C23C C 1.1009(8) 0.5701(19) 1.6927(19)
H10C H 1.1337 0.5549 1.7105
H11C H 1.1166 0.5692 1.5523
H12? H 0.9771 0.3869 0.0672
H13? H 0.9752 0.3637 0.3772
H14? H 0.9525 0.3685 0.2188
loop_
_geom_bond_atom_site_label_1
_geom_bond_atom_site_label_2
_geom_bond_site_symmetry_1
_geom_bond_site_symmetry_2
Hg1 N1 1_555 1_555
O1 C10 1_555 1_555
O2 C6 1_555 1_555
O3 C15 1_555 1_555
N1 C1 1_555 1_555
C1 H1 1_555 1_555
C2 C1 1_555 1_555
H2 C2 1_555 1_555
C3 C2 1_555 1_555
H3 C3 1_555 1_555
C4 C3 1_555 1_555
C5 C4 1_555 1_555
H4 C5 1_555 1_555
C6 C5 1_555 1_555
C7 C6 1_555 1_555
H5 C7 1_555 1_555
C8 C7 1_555 1_555
H6 C8 1_555 1_555
C9 N1 1_555 1_555
C10 O2 1_555 1_555
C11 C10 1_555 1_555
C12 C11 1_555 1_555
H7 C12 1_555 1_555
C13 C11 1_555 1_555
H8 C13 1_555 1_555
C14 C13 1_555 1_555
C15 C14 1_555 1_555
C16 O3 1_555 1_555
C17 C20 1_555 1_555
N2 C21 1_555 1_555
C18 C16 1_555 1_555
C19 C18 1_555 1_555
C20 C19 1_555 1_555
C21 C17 1_555 1_555
H9 C21 1_555 1_555
C22 N2 1_555 1_555
C23 C22 1_555 1_555
H10 C23 1_555 1_555
C24 C16 1_555 1_555
H11 C24 1_555 1_555
Br1 Hg1 1_555 1_555
O1K C10K 1_555 1_555
O2K C6K 1_555 1_555
O3K C15 1_555 1_555
N1K C1K 1_555 1_555
C1K H1K 1_555 1_555
C2K C1K 1_555 1_555
H2K C2K 1_555 1_555
C3K C2K 1_555 1_555
H3K C3K 1_555 1_555
C4K C3K 1_555 1_555
C5K C4K 1_555 1_555
H4K C5K 1_555 1_555
C6K C5K 1_555 1_555
C7K C6K 1_555 1_555
H5K C7K 1_555 1_555
C8K C7K 1_555 1_555
H6K C8K 1_555 1_555
C9K N1K 1_555 1_555
C10K O2K 1_555 1_555
C11K C12 1_555 1_555
C13K C14 1_555 1_555
H8K C13K 1_555 1_555
C16K O3K 1_555 1_555
N2K C21K 1_555 1_555
C18K C16K 1_555 1_555
C19K C18K 1_555 1_555
C20K C17 1_555 1_555
C21K C17 1_555 1_555
H9K C21K 1_555 1_555
C22K N2K 1_555 1_555
C23K C22K 1_555 1_555
H10K C23K 1_555 1_555
C24K C16K 1_555 1_555
H11K C24K 1_555 1_555
Br1C Hg1 1_555 1_555
Hg1H N1K 1_555 1_555
N1C Hg1 1_555 1_555
N1H Hg1H 1_555 1_555
Br1H Hg1H 1_555 1_555
Br1K Hg1H 1_555 1_555
O1H C10H 1_555 1_555
C10H O2H 1_555 1_555
O2H C6H 1_555 1_555
C6H C5H 1_555 1_555
O3H C15C 1_555 1_555
C15C C14C 1_555 1_555
C16H O3H 1_555 1_555
C1H N1H 1_555 1_555
C9H N1H 1_555 1_555
H1H C1H 1_555 1_555
C2H C1H 1_555 1_555
H2H C2H 1_555 1_555
C3H C2H 1_555 1_555
H3H C3H 1_555 1_555
C4H C9H 1_555 1_555
C5H C4H 1_555 1_555
H4H C5H 1_555 1_555
C7H C6H 1_555 1_555
H5H C7H 1_555 1_555
C8H C9H 1_555 1_555
H6H C8H 1_555 1_555
C11H C10H 1_555 1_555
C12C C11H 1_555 1_555
C13H C11H 1_555 1_555
H7C C12C 1_555 1_555
C11C C12C 1_555 1_555
H8H C13H 1_555 1_555
C14C C13H 1_555 1_555
C13C C11C 1_555 1_555
O3C C15C 1_555 1_555
C18H C16H 1_555 1_555
C24H C16H 1_555 1_555
C17C C20H 1_555 1_555
C20H C19H 1_555 1_555
C21H C17C 1_555 1_555
C20C C17C 1_555 1_555
C21C C17C 1_555 1_555
N2H C21H 1_555 1_555
C22H N2H 1_555 1_555
C19H C18H 1_555 1_555
H9H C21H 1_555 1_555
C23H C24H 1_555 1_555
H10H C23H 1_555 1_555
H11H C24H 1_555 1_555
O1C C10C 1_555 1_555
C10C C11C 1_555 1_555
O2C C10C 1_555 1_555
C6C O2C 1_555 1_555
C16C O3C 1_555 1_555
C1C N1C 1_555 1_555
C9C N1C 1_555 1_555
H1C C1C 1_555 1_555
C2C C1C 1_555 1_555
H2C C2C 1_555 1_555
C3C C2C 1_555 1_555
H3C C3C 1_555 1_555
C4C C9C 1_555 1_555
C5C C6C 1_555 1_555
H4C C5C 1_555 1_555
C7C C6C 1_555 1_555
H5C C7C 1_555 1_555
C8C C9C 1_555 1_555
H6C C8C 1_555 1_555
H8C C13C 1_555 1_555
C18C C16C 1_555 1_555
C24C C16C 1_555 1_555
N2C C21C 1_555 1_555
C22C N2C 1_555 1_555
C19C C20C 1_555 1_555
H9C C21C 1_555 1_555
C23C C24C 1_555 1_555
H10C C23C 1_555 1_555
H11C C24C 1_555 1_555
C4 C9 1_555 1_555
C8 C9 1_555 1_555
C19 C22 1_555 1_555
C23 C24 1_555 1_555
C4K C9K 1_555 1_555
C8K C9K 1_555 1_555
C10K C11K 1_555 1_555
C11K C13K 1_555 1_555
C19K C20K 1_555 1_555
C19K C22K 1_555 1_555
C23K C24K 1_555 1_555
C3H C4H 1_555 1_555
C7H C8H 1_555 1_555
C14C C13C 1_555 1_555
C22H C19H 1_555 1_555
C22H C23H 1_555 1_555
C3C C4C 1_555 1_555
C4C C5C 1_555 1_555
C7C C8C 1_555 1_555
C18C C19C 1_555 1_555
C22C C19C 1_555 1_555
C22C C23C 1_555 1_555

#END
