
#######################################################################
#
#                 Cambridge Crystallographic Data Centre
#                                CCDC 
#
#######################################################################
#
# If this CIF has been generated from an entry in the Cambridge 
# Structural Database, then it will include bibliographic, chemical, 
# crystal, experimental, refinement or atomic coordinate data resulting 
# from the CCDC's data processing and validation procedures.
#
#######################################################################

data_EQESOK
_chemical_formula_moiety         'C72 H42 Cl4 Hg2 N6 O12,2(H2 O1)'
_chemical_name_systematic        
'tetrachloro-bis(\m-1,3,5-triquinolin-6-yl benzene-1,3,5-tricarboxylate)-di-mercury(ii) dihydrate'
_symmetry_cell_setting           orthorhombic
_symmetry_space_group_name_H-M   'C m c a'
_symmetry_Int_Tables_number      64
_space_group_name_Hall           '-C 2ac 2'
loop_
_symmetry_equiv_pos_site_id
_symmetry_equiv_pos_as_xyz
1 x,y,z
2 -x,1/2-y,1/2+z
3 -x,1/2+y,1/2-z
4 x,-y,-z
5 1/2+x,1/2+y,z
6 1/2-x,-y,1/2+z
7 1/2-x,y,1/2-z
8 1/2+x,1/2-y,-z
9 -x,-y,-z
10 x,1/2+y,1/2-z
11 x,1/2-y,1/2+z
12 -x,y,z
13 1/2-x,1/2-y,-z
14 1/2+x,y,1/2-z
15 1/2+x,-y,1/2+z
16 1/2-x,1/2+y,z
_cell_length_a                   26.7895(7)
_cell_length_b                   14.5479(4)
_cell_length_c                   15.1124(5)
_cell_angle_alpha                90
_cell_angle_beta                 90
_cell_angle_gamma                90
_cell_volume                     5889.77
_exptl_crystal_colour            brown
_exptl_crystal_description       block
_cell_formula_units_Z            4
loop_
_atom_site_label
_atom_site_type_symbol
_atom_site_fract_x
_atom_site_fract_y
_atom_site_fract_z
O4 O 0.8025(10) 0.0000 0.5000
H12 H 0.7892 0.0437 0.4725
H12C H 0.7892 -0.0437 0.5275
Hg1 Hg 0.63956(5) 1.0000 0.5000
O1 O 0.8678(4) 0.8517(7) 0.7134(7)
O2 O 0.9087(5) 0.8475(8) 0.5823(8)
O3 O 1.0396(6) 0.8806(11) 0.9849(9)
N1 N 0.6805(5) 0.8556(9) 0.5584(9)
C1 C 0.6567(7) 0.7800(11) 0.5472(11)
H1 H 0.6251 0.7822 0.5189
C2 C 0.6754(6) 0.6924(10) 0.5751(9)
H2 H 0.6571 0.6377 0.5637
C3 C 0.7193(6) 0.6895(11) 0.6177(10)
H3 H 0.7305 0.6338 0.6439
C4 C 0.7489(5) 0.7702(10) 0.6233(9)
C5 C 0.7971(5) 0.7723(10) 0.6633(9)
H4 H 0.8118 0.7169 0.6840
C6 C 0.8213(6) 0.8502(10) 0.6718(9)
C7 C 0.8043(6) 0.9351(11) 0.6437(9)
H5 H 0.8240 0.9894 0.6435
C8 C 0.7521(8) 0.9308(14) 0.6141(13)
H6 H 0.7345 0.9870 0.6072
C9 C 0.7284(6) 0.8544(10) 0.5967(9)
C10 C 0.9088(5) 0.8549(9) 0.6623(9)
N2 N 1.0768(10) 0.9296(16) 1.3466(15)
C11 C 1.0444(13) 0.916(2) 1.402(2)
H7 H 1.0542 0.9187 1.4620
C12 C 0.9904(9) 0.8960(14) 1.3834(13)
C13 C 0.9792(11) 0.886(2) 1.2978(19)
C14 C 1.0151(9) 0.8907(18) 1.2323(16)
C15 C 1.0000 0.8814(14) 1.1395(13)
C16 C 1.0420(9) 0.8918(16) 1.0767(16)
C17 C 1.0897(10) 0.9200(18) 1.1013(16)
H8 H 1.1139 0.9319 1.0559
C18 C 1.1032(12) 0.929(2) 1.1891(19)
H9 H 1.1363 0.9452 1.2083
C19 C 1.0650(9) 0.9157(16) 1.2585(15)
C20 C 1.0000 0.8773(15) 0.9472(14)
C21 C 1.0000 0.8521(12) 0.6678(11)
H10 H 1.0000 0.8464 0.6052
C22 C 0.9541(5) 0.8563(9) 0.7150(8)
C23 C 0.9552(5) 0.8646(8) 0.8037(8)
H11 H 0.9243 0.8693 0.8344
C24 C 1.0000 0.8668(14) 0.8535(13)
Cl1 Cl 0.6302(2) 0.9426(4) 0.3543(4)
O1K O 1.1322(4) 0.8517(7) 0.7134(7)
O2K O 1.0913(5) 0.8475(8) 0.5823(8)
O3K O 0.9604(6) 0.8806(11) 0.9849(9)
N1K N 1.3195(5) 0.8556(9) 0.5584(9)
C1K C 1.3433(7) 0.7800(11) 0.5472(11)
H1K H 1.3749 0.7822 0.5189
C2K C 1.3246(6) 0.6924(10) 0.5751(9)
H2K H 1.3429 0.6377 0.5637
C3K C 1.2807(6) 0.6895(11) 0.6177(10)
H3K H 1.2695 0.6338 0.6439
C4K C 1.2511(5) 0.7702(10) 0.6233(9)
C5K C 1.2029(5) 0.7723(10) 0.6633(9)
H4K H 1.1882 0.7169 0.6840
C6K C 1.1787(6) 0.8502(10) 0.6718(9)
C7K C 1.1957(6) 0.9351(11) 0.6437(9)
H5K H 1.1760 0.9894 0.6435
C8K C 1.2479(8) 0.9308(14) 0.6141(13)
H6K H 1.2655 0.9870 0.6072
C9K C 1.2716(6) 0.8544(10) 0.5967(9)
C10K C 1.0912(5) 0.8549(9) 0.6623(9)
N2K N 0.9232(10) 0.9296(16) 1.3466(15)
C11K C 0.9556(13) 0.916(2) 1.402(2)
H7K H 0.9458 0.9187 1.4620
C12K C 1.0096(9) 0.8960(14) 1.3834(13)
C13K C 1.0208(11) 0.886(2) 1.2978(19)
C14K C 0.9849(9) 0.8907(18) 1.2323(16)
C16K C 0.9580(9) 0.8918(16) 1.0767(16)
C17K C 0.9103(10) 0.9200(18) 1.1013(16)
H8K H 0.8861 0.9319 1.0559
C18K C 0.8968(12) 0.929(2) 1.1891(19)
H9K H 0.8637 0.9452 1.2083
C19K C 0.9350(9) 0.9157(16) 1.2585(15)
C22K C 1.0459(5) 0.8563(9) 0.7150(8)
C23K C 1.0448(5) 0.8646(8) 0.8037(8)
H11K H 1.0757 0.8693 0.8344
Cl1C Cl 0.6302(2) 1.0574(4) 0.6457(4)
Hg1H Hg 1.36044(5) 1.0000 0.5000
N1C N 0.6805(5) 1.1444(9) 0.4416(9)
N1H N 1.3195(5) 1.1444(9) 0.4416(9)
Cl1H Cl 1.3698(2) 1.0574(4) 0.6457(4)
Cl1K Cl 1.3698(2) 0.9426(4) 0.3543(4)
O1H O 1.1322(4) 1.1483(7) 0.2866(7)
C6H C 1.1787(6) 1.1498(10) 0.3282(9)
C10H C 1.0912(5) 1.1451(9) 0.3377(9)
O2H O 1.0913(5) 1.1525(8) 0.4177(8)
O3H O 0.9604(6) 1.1194(11) 0.0151(9)
C16H C 0.9580(9) 1.1082(16) -0.0767(16)
C20C C 1.0000 1.1227(15) 0.0528(14)
C1H C 1.3433(7) 1.2200(11) 0.4528(11)
C9H C 1.2716(6) 1.1456(10) 0.4033(9)
H1H H 1.3749 1.2178 0.4811
C2H C 1.3246(6) 1.3076(10) 0.4249(9)
H2H H 1.3429 1.3623 0.4363
C3H C 1.2807(6) 1.3105(11) 0.3823(10)
H3H H 1.2695 1.3662 0.3561
C4H C 1.2511(5) 1.2298(10) 0.3767(9)
C5H C 1.2029(5) 1.2277(10) 0.3367(9)
H4H H 1.1882 1.2831 0.3160
C7H C 1.1957(6) 1.0649(11) 0.3563(9)
H5H H 1.1760 1.0106 0.3565
C8H C 1.2479(8) 1.0692(14) 0.3859(13)
H6H H 1.2655 1.0130 0.3928
C22H C 1.0459(5) 1.1437(9) 0.2850(8)
N2H N 0.9232(10) 1.0704(16) -0.3466(15)
C11H C 0.9556(13) 1.084(2) -0.402(2)
C19H C 0.9350(9) 1.0843(16) -0.2585(15)
H7H H 0.9458 1.0813 -0.4620
C12H C 1.0096(9) 1.1040(14) -0.3834(13)
C13H C 1.0208(11) 1.114(2) -0.2978(19)
C14H C 0.9849(9) 1.1093(18) -0.2323(16)
C15C C 1.0000 1.1186(14) -0.1395(13)
C14C C 1.0151(9) 1.1093(18) -0.2323(16)
C16C C 1.0420(9) 1.1082(16) -0.0767(16)
C17H C 0.9103(10) 1.0800(18) -0.1013(16)
H8H H 0.8861 1.0681 -0.0559
C18H C 0.8968(12) 1.071(2) -0.1891(19)
H9H H 0.8637 1.0548 -0.2083
C24C C 1.0000 1.1332(14) 0.1465(13)
O3C O 1.0396(6) 1.1194(11) 0.0151(9)
C21C C 1.0000 1.1479(12) 0.3322(11)
H10C H 1.0000 1.1536 0.3948
C22C C 0.9541(5) 1.1437(9) 0.2850(8)
C23H C 1.0448(5) 1.1354(8) 0.1963(8)
H11H H 1.0757 1.1307 0.1656
C23C C 0.9552(5) 1.1354(8) 0.1963(8)
O1C O 0.8678(4) 1.1483(7) 0.2866(7)
C6C C 0.8213(6) 1.1498(10) 0.3282(9)
C10C C 0.9088(5) 1.1451(9) 0.3377(9)
O2C O 0.9087(5) 1.1525(8) 0.4177(8)
C1C C 0.6567(7) 1.2200(11) 0.4528(11)
C9C C 0.7284(6) 1.1456(10) 0.4033(9)
H1C H 0.6251 1.2178 0.4811
C2C C 0.6754(6) 1.3076(10) 0.4249(9)
H2C H 0.6571 1.3623 0.4363
C3C C 0.7193(6) 1.3105(11) 0.3823(10)
H3C H 0.7305 1.3662 0.3561
C4C C 0.7489(5) 1.2298(10) 0.3767(9)
C5C C 0.7971(5) 1.2277(10) 0.3367(9)
H4C H 0.8118 1.2831 0.3160
C7C C 0.8043(6) 1.0649(11) 0.3563(9)
H5C H 0.8240 1.0106 0.3565
C8C C 0.7521(8) 1.0692(14) 0.3859(13)
H6C H 0.7345 1.0130 0.3928
N2C N 1.0768(10) 1.0704(16) -0.3466(15)
C11C C 1.0444(13) 1.084(2) -0.402(2)
C19C C 1.0650(9) 1.0843(16) -0.2585(15)
H7C H 1.0542 1.0813 -0.4620
C12C C 0.9904(9) 1.1040(14) -0.3834(13)
C13C C 0.9792(11) 1.114(2) -0.2978(19)
C17C C 1.0897(10) 1.0800(18) -0.1013(16)
H8C H 1.1139 1.0681 -0.0559
C18C C 1.1032(12) 1.071(2) -0.1891(19)
H9C H 1.1363 1.0548 -0.2083
H11C H 0.9243 1.1307 0.1656
H13? H 0.8130 0.0393 0.5363
H14? H 0.9666 0.8699 1.1215
H15? H 0.9455 0.8758 1.2814
H16? H 0.9661 0.8906 1.4290
loop_
_geom_bond_atom_site_label_1
_geom_bond_atom_site_label_2
_geom_bond_site_symmetry_1
_geom_bond_site_symmetry_2
Hg1 N1 1_555 1_555
O1 C6 1_555 1_555
O2 C10 1_555 1_555
O3 C16 1_555 1_555
N1 C1 1_555 1_555
C1 H1 1_555 1_555
C2 C1 1_555 1_555
H2 C2 1_555 1_555
C3 C2 1_555 1_555
H3 C3 1_555 1_555
C4 C3 1_555 1_555
C5 C4 1_555 1_555
H4 C5 1_555 1_555
C6 C5 1_555 1_555
C7 C6 1_555 1_555
H5 C7 1_555 1_555
C8 C7 1_555 1_555
H6 C8 1_555 1_555
C9 N1 1_555 1_555
C10 O1 1_555 1_555
N2 C11 1_555 1_555
C11 H7 1_555 1_555
C12 C11 1_555 1_555
C13 C12 1_555 1_555
C14 C13 1_555 1_555
C15 C14 1_555 1_555
C16 C15 1_555 1_555
C17 C16 1_555 1_555
H8 C17 1_555 1_555
C18 C17 1_555 1_555
H9 C18 1_555 1_555
C19 N2 1_555 1_555
C20 O3 1_555 1_555
C21 H10 1_555 1_555
C22 C10 1_555 1_555
C23 C22 1_555 1_555
H11 C23 1_555 1_555
C24 C20 1_555 1_555
Cl1 Hg1 1_555 1_555
O4 H12 1_555 1_555
O1K C6K 1_555 1_555
O2K C10K 1_555 1_555
O3K C20 1_555 1_555
N1K C1K 1_555 1_555
C1K H1K 1_555 1_555
C2K C1K 1_555 1_555
H2K C2K 1_555 1_555
C3K C2K 1_555 1_555
H3K C3K 1_555 1_555
C4K C3K 1_555 1_555
C5K C4K 1_555 1_555
H4K C5K 1_555 1_555
C6K C5K 1_555 1_555
C7K C6K 1_555 1_555
H5K C7K 1_555 1_555
C8K C7K 1_555 1_555
H6K C8K 1_555 1_555
C9K N1K 1_555 1_555
C10K O1K 1_555 1_555
N2K C11K 1_555 1_555
C11K H7K 1_555 1_555
C12K C11K 1_555 1_555
C13K C12K 1_555 1_555
C14K C15 1_555 1_555
C16K C15 1_555 1_555
C17K C16K 1_555 1_555
H8K C17K 1_555 1_555
C18K C17K 1_555 1_555
H9K C18K 1_555 1_555
C19K N2K 1_555 1_555
C22K C21 1_555 1_555
C23K C24 1_555 1_555
H11K C23K 1_555 1_555
Cl1C Hg1 1_555 1_555
Hg1H N1K 1_555 1_555
N1C Hg1 1_555 1_555
N1H Hg1H 1_555 1_555
Cl1H Hg1H 1_555 1_555
Cl1K Hg1H 1_555 1_555
O1H C6H 1_555 1_555
C6H C5H 1_555 1_555
C10H O1H 1_555 1_555
O2H C10H 1_555 1_555
O3H C16H 1_555 1_555
C16H C15C 1_555 1_555
C20C O3H 1_555 1_555
C1H N1H 1_555 1_555
C9H N1H 1_555 1_555
H1H C1H 1_555 1_555
C2H C1H 1_555 1_555
H2H C2H 1_555 1_555
C3H C2H 1_555 1_555
H3H C3H 1_555 1_555
C4H C9H 1_555 1_555
C5H C4H 1_555 1_555
H4H C5H 1_555 1_555
C7H C6H 1_555 1_555
H5H C7H 1_555 1_555
C8H C9H 1_555 1_555
H6H C8H 1_555 1_555
C22H C10H 1_555 1_555
N2H C11H 1_555 1_555
C11H H7H 1_555 1_555
C19H N2H 1_555 1_555
C12H C11H 1_555 1_555
C13H C12H 1_555 1_555
C14H C19H 1_555 1_555
C15C C14H 1_555 1_555
C14C C15C 1_555 1_555
C16C C15C 1_555 1_555
C17H C16H 1_555 1_555
H8H C17H 1_555 1_555
C18H C19H 1_555 1_555
H9H C18H 1_555 1_555
C24C C20C 1_555 1_555
O3C C20C 1_555 1_555
C21C C22H 1_555 1_555
H10C C21C 1_555 1_555
C22C C21C 1_555 1_555
C23H C22H 1_555 1_555
H11H C23H 1_555 1_555
C23C C24C 1_555 1_555
O1C C6C 1_555 1_555
C6C C5C 1_555 1_555
C10C C22C 1_555 1_555
O2C C10C 1_555 1_555
C1C N1C 1_555 1_555
C9C N1C 1_555 1_555
H1C C1C 1_555 1_555
C2C C1C 1_555 1_555
H2C C2C 1_555 1_555
C3C C2C 1_555 1_555
H3C C3C 1_555 1_555
C4C C9C 1_555 1_555
C5C C4C 1_555 1_555
H4C C5C 1_555 1_555
C7C C6C 1_555 1_555
H5C C7C 1_555 1_555
C8C C9C 1_555 1_555
H6C C8C 1_555 1_555
N2C C11C 1_555 1_555
C11C H7C 1_555 1_555
C19C C14C 1_555 1_555
C12C C11C 1_555 1_555
C13C C14C 1_555 1_555
C17C C16C 1_555 1_555
H8C C17C 1_555 1_555
C18C C19C 1_555 1_555
H9C C18C 1_555 1_555
H11C C23C 1_555 1_555
H12C O4 1_555 1_555
C4 C9 1_555 1_555
C8 C9 1_555 1_555
C14 C19 1_555 1_555
C18 C19 1_555 1_555
C21 C22 1_555 1_555
C23 C24 1_555 1_555
O3K C16K 1_555 1_555
C4K C9K 1_555 1_555
C8K C9K 1_555 1_555
C10K C22K 1_555 1_555
C13K C14K 1_555 1_555
C14K C19K 1_555 1_555
C18K C19K 1_555 1_555
C22K C23K 1_555 1_555
C3H C4H 1_555 1_555
C7H C8H 1_555 1_555
C13H C14H 1_555 1_555
C16C O3C 1_555 1_555
C17H C18H 1_555 1_555
C24C C23H 1_555 1_555
C22C C23C 1_555 1_555
O1C C10C 1_555 1_555
C3C C4C 1_555 1_555
C7C C8C 1_555 1_555
N2C C19C 1_555 1_555
C12C C13C 1_555 1_555
C17C C18C 1_555 1_555

#END
