
#######################################################################
#
#                 Cambridge Crystallographic Data Centre
#                                CCDC 
#
#######################################################################
#
# If this CIF has been generated from an entry in the Cambridge 
# Structural Database, then it will include bibliographic, chemical, 
# crystal, experimental, refinement or atomic coordinate data resulting 
# from the CCDC's data processing and validation procedures.
#
#######################################################################

data_EQEVUS
_chemical_formula_moiety         'C124 H104 Cu4 O28'
_chemical_name_systematic        
"tetrakis(\m~4~-3,3'-((5-((hexanoyloxy)methyl)-1,3-phenylene)diethyne-2,1-diyl)dibenzoato)-tetraaqua-tetra-copper unknown solvate"
_symmetry_cell_setting           monoclinic
_symmetry_space_group_name_H-M   'C 2/c'
_symmetry_Int_Tables_number      15
_space_group_name_Hall           '-C 2yn'
loop_
_symmetry_equiv_pos_site_id
_symmetry_equiv_pos_as_xyz
1 x,y,z
2 -x,y,1/2-z
3 1/2+x,1/2+y,z
4 1/2-x,1/2+y,1/2-z
5 -x,-y,-z
6 x,-y,1/2+z
7 1/2-x,1/2-y,-z
8 1/2+x,1/2-y,1/2+z
_cell_length_a                   26.047(5)
_cell_length_b                   18.101(3)
_cell_length_c                   33.213(6)
_cell_angle_alpha                90
_cell_angle_beta                 105.478(2)
_cell_angle_gamma                90
_cell_volume                     15091.2
_exptl_crystal_colour            blue
_exptl_crystal_description       prism
_cell_formula_units_Z            4
loop_
_atom_site_label
_atom_site_type_symbol
_atom_site_fract_x
_atom_site_fract_y
_atom_site_fract_z
Cu1 Cu 0.88899(3) 0.65671(5) 0.60512(2)
Cu2 Cu 0.96465(3) 0.59746(5) 0.66486(2)
O1 O 0.9039(2) 0.5739(3) 0.57258(13)
O2 O 0.97459(19) 0.5313(3) 0.62194(13)
O3 O 0.88891(17) 0.7306(2) 0.64851(13)
O4 O 0.94755(17) 0.6720(3) 0.70091(13)
O5 O 0.83992(18) 0.5952(3) 0.62604(14)
O6 O 0.9060(2) 0.5362(3) 0.67275(14)
O7 O 0.94747(18) 0.7107(3) 0.59150(13)
O8 O 1.01057(17) 0.6708(3) 0.64775(13)
O9 O 0.8285(2) 0.7082(4) 0.55608(17)
O10 O 1.0231(2) 0.5426(4) 0.71475(16)
C1 C 0.9437(4) 0.5316(4) 0.5850(2)
C2 C 0.9554(2) 0.4781(3) 0.55467(12)
C3 C 0.9268(2) 0.4839(3) 0.51299(14)
H1 H 0.8995 0.5200 0.5048
C4 C 0.9381(2) 0.4370(3) 0.48337(10)
C5 C 0.9781(2) 0.3842(3) 0.49543(12)
H2 H 0.9858 0.3521 0.4752
C6 C 1.00670(19) 0.3784(3) 0.53711(14)
H3 H 1.0340 0.3424 0.5454
C7 C 0.9954(2) 0.4254(3) 0.56673(10)
H4 H 1.0149 0.4214 0.5952
C8 C 0.9090(3) 0.4432(5) 0.44005(11)
C9 C 0.8838(3) 0.4506(4) 0.40440(12)
C10 C 0.85383(18) 0.4531(3) 0.36116(10)
C11 C 0.8053(2) 0.4899(3) 0.34959(13)
H5 H 0.7927 0.5157 0.3700
C12 C 0.77514(16) 0.4891(3) 0.30817(15)
C13 C 0.79358(19) 0.4514(3) 0.27833(10)
H6 H 0.7730 0.4508 0.2500
C14 C 0.8422(2) 0.4146(3) 0.28990(12)
C15 C 0.87228(16) 0.4155(3) 0.33132(14)
H7 H 0.9055 0.3903 0.3392
C16 C 0.7255(2) 0.5288(4) 0.2951(2)
C17 C 0.6850(2) 0.5630(4) 0.2837(2)
C18 C 0.63960(16) 0.6111(2) 0.27051(15)
C19 C 0.63156(16) 0.6652(3) 0.29792(10)
H8 H 0.6533 0.6663 0.3259
C20 C 0.59176(17) 0.7177(2) 0.28441(12)
C21 C 0.56001(15) 0.7162(2) 0.24349(13)
H9 H 0.5328 0.7521 0.2343
C22 C 0.56804(17) 0.6622(3) 0.21608(10)
H10 H 0.5463 0.6611 0.1881
C23 C 0.60784(19) 0.6096(2) 0.22959(14)
H11 H 0.6133 0.5727 0.2109
C24 C 0.9153(3) 0.7237(4) 0.6860(2)
C25 C 0.8632(3) 0.3734(5) 0.2583(2)
H12 H 0.8840 0.4076 0.2455
H13 H 0.8873 0.3335 0.2725
O11 O 0.8205(5) 0.3418(7) 0.2259(4)
O12 O 0.8085(7) 0.2587(9) 0.2729(3)
C26 C 0.7960(6) 0.2830(9) 0.2376(3)
C27 C 0.7491(5) 0.2456(7) 0.2079(3)
H14 H 0.7572 0.1926 0.2054
H15 H 0.7174 0.2492 0.2189
C28 C 0.7377(4) 0.2820(7) 0.1655(3)
H16 H 0.7680 0.2741 0.1534
H17 H 0.7331 0.3358 0.1685
C29 C 0.6876(5) 0.2496(7) 0.1370(3)
H18 H 0.6930 0.1964 0.1327
H19 H 0.6578 0.2547 0.1501
C30 C 0.6742(5) 0.2894(7) 0.0956(3)
H20 H 0.6663 0.3419 0.0997
H21 H 0.7051 0.2874 0.0835
C31 C 0.6265(5) 0.2535(8) 0.0660(3)
H22 H 0.6171 0.2808 0.0395
H23 H 0.5964 0.2542 0.0784
H24 H 0.6352 0.2023 0.0608
C32 C 0.8568(3) 0.5475(4) 0.6545(2)
O13 O 0.4422(6) 0.4531(7) 0.6604(4)
O14 O 0.3806(6) 0.5293(11) 0.6279(5)
C33 C 0.8149(4) 0.5030(7) 0.6675(4)
C34 C 0.7609(5) 0.5109(5) 0.6478(3)
H25 H 0.7493 0.5479 0.6271
C35 C 0.7240(2) 0.4648(6) 0.6585(3)
C36 C 0.7410(4) 0.4106(6) 0.6888(4)
H26 H 0.7158 0.3791 0.6961
C37 C 0.7950(5) 0.4027(6) 0.7085(3)
H27 H 0.8066 0.3657 0.7292
C38 C 0.8319(2) 0.4489(7) 0.6978(3)
H28 H 0.8688 0.4435 0.7112
C39 C 0.6685(3) 0.4754(9) 0.6372(4)
C40 C 0.6220(2) 0.4849(7) 0.6230(4)
C41 C 0.5661(2) 0.4876(5) 0.6015(3)
C42 C 0.5480(3) 0.5237(4) 0.5634(3)
H29 H 0.5727 0.5471 0.5510
C43 C 0.4939(4) 0.5254(4) 0.54334(19)
C44 C 0.4578(2) 0.4910(5) 0.5614(3)
H30 H 0.4208 0.4922 0.5477
C45 C 0.4758(3) 0.4549(4) 0.5995(3)
C46 C 0.5300(4) 0.4532(4) 0.61956(18)
H31 H 0.5423 0.4286 0.6456
C47 C 0.4748(7) 0.5626(6) 0.5038(2)
C48 C 0.4618(6) 0.5980(7) 0.4725(3)
C49 C 0.4448(4) 0.6456(5) 0.43666(19)
C50 C 0.4809(4) 0.6962(6) 0.4285(3)
H32 H 0.5160 0.6989 0.4464
C51 C 0.4656(5) 0.7428(6) 0.3941(3)
C52 C 0.4142(5) 0.7388(5) 0.3679(2)
H33 H 0.4038 0.7706 0.3443
C53 C 0.3781(4) 0.6882(6) 0.3760(3)
H34 H 0.3430 0.6854 0.3581
C54 C 0.3934(4) 0.6416(5) 0.4104(3)
H35 H 0.3688 0.6070 0.4160
C55 C 0.9974(14) 0.7010(9) 0.6167(14)
C56 C 0.4395(6) 0.4162(7) 0.6214(5)
H36 H 0.4025 0.4170 0.6035
H37 H 0.4507 0.3640 0.6268
C57 C 0.4129(5) 0.5145(7) 0.6602(4)
C58 C 0.4227(6) 0.5588(12) 0.6998(7)
H38 H 0.4386 0.6071 0.6958
H39 H 0.4483 0.5323 0.7227
C59 C 0.3712(10) 0.5709(15) 0.7114(8)
H40 H 0.3636 0.5277 0.7272
H41 H 0.3415 0.5762 0.6858
C60 C 0.3753(12) 0.6397(10) 0.7378(8)
H42 H 0.3433 0.6707 0.7272
H43 H 0.4069 0.6688 0.7361
C61 C 0.3803(15) 0.6186(17) 0.7827(6)
H44 H 0.3644 0.5692 0.7838
H45 H 0.4184 0.6162 0.7983
C62 C 0.352(2) 0.675(2) 0.8026(13)
H46 H 0.3640 0.6700 0.8331
H47 H 0.3135 0.6668 0.7931
H48 H 0.3604 0.7248 0.7946
Cu1F Cu 0.61101(3) 0.84329(5) 0.39488(2)
Cu2F Cu 0.53535(3) 0.90254(5) 0.33514(2)
O1F O 0.5961(2) 0.9261(3) 0.42742(13)
O2F O 0.52541(19) 0.9687(3) 0.37806(13)
O3F O 0.61109(17) 0.7694(2) 0.35149(13)
O4F O 0.55245(17) 0.8280(3) 0.29909(13)
O5F O 0.66008(18) 0.9048(3) 0.37396(14)
O6F O 0.5940(2) 0.9638(3) 0.32725(14)
O7F O 0.55253(18) 0.7893(3) 0.40850(13)
O8F O 0.48943(17) 0.8292(3) 0.35225(13)
O9F O 0.6715(2) 0.7918(4) 0.44392(17)
O10F O 0.4769(2) 0.9574(4) 0.28525(16)
C1F C 0.5563(4) 0.9684(4) 0.4150(2)
C2F C 0.5446(2) 1.0219(3) 0.44533(12)
C3F C 0.5732(2) 1.0161(3) 0.48701(14)
H1F H 0.6005 0.9800 0.4952
C4F C 0.5619(2) 1.0630(3) 0.51663(10)
C5F C 0.5219(2) 1.1158(3) 0.50457(12)
H2F H 0.5142 1.1479 0.5248
C6F C 0.49330(19) 1.1216(3) 0.46289(14)
H3F H 0.4660 1.1576 0.4546
C7F C 0.5046(2) 1.0746(3) 0.43327(10)
H4F H 0.4851 1.0786 0.4048
C8F C 0.5910(3) 1.0568(5) 0.55995(11)
C9F C 0.6162(3) 1.0494(4) 0.59560(12)
C10F C 0.64617(18) 1.0469(3) 0.63884(10)
C11F C 0.6947(2) 1.0101(3) 0.65041(13)
H5F H 0.7073 0.9843 0.6300
C12F C 0.72486(16) 1.0109(3) 0.69183(15)
C13F C 0.70642(19) 1.0486(3) 0.72167(10)
H6F H 0.7270 1.0492 0.7500
C14F C 0.6578(2) 1.0854(3) 0.71010(12)
C15F C 0.62772(16) 1.0845(3) 0.66868(14)
H7F H 0.5945 1.1097 0.6608
C16F C 0.7745(2) 0.9712(4) 0.7049(2)
C17F C 0.8150(2) 0.9370(4) 0.7163(2)
C18F C 0.86040(16) 0.8889(2) 0.72949(15)
C19F C 0.86844(16) 0.8348(3) 0.70208(10)
H8F H 0.8467 0.8337 0.6741
C20F C 0.90824(17) 0.7823(2) 0.71559(12)
C21F C 0.93999(15) 0.7838(2) 0.75651(13)
H9F H 0.9672 0.7479 0.7657
C22F C 0.93196(17) 0.8378(3) 0.78392(10)
H10F H 0.9537 0.8389 0.8119
C23F C 0.89216(19) 0.8904(2) 0.77041(14)
H11F H 0.8867 0.9273 0.7891
C24F C 0.5847(3) 0.7763(4) 0.3140(2)
C25F C 0.6368(3) 1.1266(5) 0.7417(2)
H12F H 0.6160 1.0924 0.7545
H13F H 0.6127 1.1665 0.7275
O11F O 0.6795(5) 1.1582(7) 0.7741(4)
O12F O 0.6915(7) 1.2413(9) 0.7271(3)
C26F C 0.7040(6) 1.2170(9) 0.7624(3)
C27F C 0.7509(5) 1.2544(7) 0.7921(3)
H14F H 0.7428 1.3074 0.7946
H15F H 0.7826 1.2508 0.7811
C28F C 0.7623(4) 1.2180(7) 0.8345(3)
H16F H 0.7320 1.2259 0.8466
H17F H 0.7669 1.1642 0.8315
C29F C 0.8124(5) 1.2504(7) 0.8630(3)
H18F H 0.8070 1.3036 0.8673
H19F H 0.8422 1.2453 0.8499
C30F C 0.8258(5) 1.2106(7) 0.9044(3)
H20F H 0.8337 1.1581 0.9003
H21F H 0.7949 1.2126 0.9165
C31F C 0.8735(5) 1.2465(8) 0.9340(3)
H22F H 0.8829 1.2192 0.9605
H23F H 0.9036 1.2458 0.9216
H24F H 0.8648 1.2977 0.9392
C32F C 0.6432(3) 0.9525(4) 0.3455(2)
O13F O 1.0578(6) 1.0469(7) 0.3396(4)
O14F O 1.1194(6) 0.9707(11) 0.3721(5)
C33F C 0.6851(4) 0.9970(7) 0.3325(4)
C34F C 0.7391(5) 0.9891(5) 0.3522(3)
H25F H 0.7507 0.9521 0.3729
C35F C 0.7760(2) 1.0352(6) 0.3415(3)
C36F C 0.7590(4) 1.0894(6) 0.3112(4)
H26F H 0.7842 1.1209 0.3039
C37F C 0.7050(5) 1.0973(6) 0.2915(3)
H27F H 0.6934 1.1343 0.2708
C38F C 0.6681(2) 1.0511(7) 0.3022(3)
H28F H 0.6312 1.0565 0.2888
C39F C 0.8315(3) 1.0246(9) 0.3628(4)
C40F C 0.8780(2) 1.0151(7) 0.3770(4)
C41F C 0.9339(2) 1.0124(5) 0.3985(3)
C42F C 0.9520(3) 0.9763(4) 0.4366(3)
H29F H 0.9273 0.9529 0.4490
C43F C 1.0061(4) 0.9746(4) 0.45666(19)
C44F C 1.0422(2) 1.0090(5) 0.4386(3)
H30F H 1.0792 1.0078 0.4523
C45F C 1.0242(3) 1.0451(4) 0.4005(3)
C46F C 0.9700(4) 1.0468(4) 0.38044(18)
H31F H 0.9577 1.0714 0.3544
C47F C 1.0252(7) 0.9374(6) 0.4962(2)
C48F C 1.0382(6) 0.9020(7) 0.5275(3)
C49F C 1.0552(4) 0.8544(5) 0.56334(19)
C50F C 1.0191(4) 0.8038(6) 0.5715(3)
H32F H 0.9840 0.8011 0.5536
C51F C 1.0344(5) 0.7572(6) 0.6059(3)
C52F C 1.0858(5) 0.7612(5) 0.6321(2)
H33F H 1.0962 0.7294 0.6557
C53F C 1.1219(4) 0.8118(6) 0.6240(3)
H34F H 1.1570 0.8146 0.6419
C54F C 1.1066(4) 0.8584(5) 0.5896(3)
H35F H 1.1312 0.8930 0.5840
C55F C 0.5026(14) 0.7990(9) 0.3833(14)
C56F C 1.0605(6) 1.0838(7) 0.3786(5)
H36F H 1.0975 1.0830 0.3965
H37F H 1.0493 1.1360 0.3732
C57F C 1.0871(5) 0.9855(7) 0.3398(4)
C58F C 1.0773(6) 0.9412(12) 0.3002(7)
H38F H 1.0614 0.8929 0.3042
H39F H 1.0517 0.9677 0.2773
C59F C 1.1288(10) 0.9291(15) 0.2886(8)
H40F H 1.1364 0.9723 0.2728
H41F H 1.1585 0.9238 0.3142
C60F C 1.1247(12) 0.8603(10) 0.2622(8)
H42F H 1.1567 0.8293 0.2728
H43F H 1.0931 0.8312 0.2639
C61F C 1.1197(15) 0.8814(17) 0.2173(6)
H44F H 1.1356 0.9308 0.2162
H45F H 1.0816 0.8838 0.2017
C62F C 1.148(2) 0.825(2) 0.1974(13)
H46F H 1.1360 0.8300 0.1669
H47F H 1.1865 0.8332 0.2069
H48F H 1.1396 0.7752 0.2054
C63? C 0.7875(8) 0.2874(11) 0.2293(6)
C64? C 0.7395(6) 0.2629(11) 0.1954(7)
C65? C 0.7557(8) 0.2045(16) 0.1687(7)
C66? C 0.7089(7) 0.1854(18) 0.1323(6)
C67? C 0.7279(8) 0.171(2) 0.0938(6)
C68? C 0.6806(11) 0.160(2) 0.0565(5)
C69? C 0.8152(4) 0.4997(7) 0.6658(4)
C70? C 0.7623(5) 0.5226(4) 0.6541(3)
C71? C 0.7240(2) 0.4827(6) 0.6671(3)
C72? C 0.7385(4) 0.4200(7) 0.6916(4)
C73? C 0.7913(5) 0.3971(5) 0.7032(4)
C74? C 0.8297(2) 0.4370(7) 0.6903(4)
C75? C 0.6691(3) 0.5062(9) 0.6551(4)
C76? C 0.6255(3) 0.5318(5) 0.6471(5)
C77? C 0.5770(2) 0.5745(4) 0.6364(3)
C78? C 0.5527(4) 0.5862(4) 0.5943(3)
C79? C 0.5059(4) 0.6269(5) 0.58219(19)
C80? C 0.4833(2) 0.6560(4) 0.6123(3)
C81? C 0.5076(3) 0.6443(4) 0.6544(3)
C82? C 0.5544(3) 0.6035(5) 0.66649(18)
C83? C 0.4789(6) 0.6409(9) 0.5390(2)
C84? C 0.4621(6) 0.6523(7) 0.50252(19)
C85? C 0.4442(4) 0.6816(5) 0.46075(16)
C86? C 0.4811(4) 0.7152(6) 0.4432(3)
C87? C 0.4649(5) 0.7440(6) 0.4030(3)
C88? C 0.4118(5) 0.7390(6) 0.3803(2)
C89? C 0.3749(4) 0.7053(6) 0.3978(3)
C90? C 0.3911(4) 0.6766(5) 0.4381(2)
C91? C 0.5080(14) 0.7794(10) 0.3869(15)
C92? C 0.4734(11) 0.6826(10) 0.6782(13)
C93? C 0.3965(6) 0.6627(7) 0.7042(6)
C94? C 0.3369(6) 0.6522(13) 0.6890(9)
C95? C 0.3133(7) 0.7098(16) 0.6565(10)
C96? C 0.2537(6) 0.6995(19) 0.6414(9)
C97? C 0.2387(13) 0.673(2) 0.5967(9)
C98? C 0.272(3) 0.606(2) 0.5929(16)
H49? H 0.7122 0.2426 0.2081
H50? H 0.7238 0.3057 0.1778
H51? H 0.7854 0.2231 0.1582
H52? H 0.7680 0.1598 0.1856
H53? H 0.6829 0.2266 0.1269
H54? H 0.6908 0.1407 0.1390
H55? H 0.7508 0.1269 0.0981
H56? H 0.7493 0.2140 0.0888
H57? H 0.6931 0.1464 0.0322
H58? H 0.6602 0.2064 0.0505
H59? H 0.6579 0.1210 0.0625
H60? H 0.7524 0.5655 0.6374
H61? H 0.7123 0.3927 0.7004
H62? H 0.8012 0.3543 0.7200
H63? H 0.8658 0.4214 0.6982
H64? H 0.5681 0.5663 0.5737
H65? H 0.4513 0.6838 0.6040
H66? H 0.5710 0.5955 0.6953
H67? H 0.5174 0.7186 0.4587
H68? H 0.4007 0.7587 0.3528
H69? H 0.3386 0.7020 0.3823
H70? H 0.3659 0.6536 0.4500
H71? H 0.4957 0.6965 0.7063
H72? H 0.4587 0.7285 0.6634
H73? H 0.3288 0.6022 0.6769
H74? H 0.3209 0.6566 0.7128
H75? H 0.3292 0.7053 0.6327
H76? H 0.3214 0.7598 0.6687
H77? H 0.2355 0.7469 0.6433
H78? H 0.2420 0.6630 0.6593
H79? H 0.2452 0.7126 0.5782
H80? H 0.2004 0.6601 0.5880
H81? H 0.2632 0.5903 0.5636
H82? H 0.2631 0.5654 0.6098
H83? H 0.3095 0.6179 0.6028
O15? O 0.8208(9) 0.3426(12) 0.2254(7)
O16? O 0.8009(14) 0.2595(19) 0.2636(7)
O17? O 0.4301(6) 0.6367(8) 0.6828(7)
O18? O 0.4182(10) 0.6947(14) 0.7362(7)
loop_
_geom_bond_atom_site_label_1
_geom_bond_atom_site_label_2
_geom_bond_site_symmetry_1
_geom_bond_site_symmetry_2
Cu1 O1 1_555 1_555
Cu2 O2 1_555 1_555
O1 C1 1_555 1_555
O2 C1 1_555 1_555
O3 Cu1 1_555 1_555
O4 Cu2 1_555 1_555
O5 Cu1 1_555 1_555
O6 Cu2 1_555 1_555
O7 Cu1 1_555 1_555
O8 Cu2 1_555 1_555
O9 Cu1 1_555 1_555
O10 Cu2 1_555 1_555
C1 C2 1_555 1_555
C2 C3 1_555 1_555
C3 H1 1_555 1_555
C4 C3 1_555 1_555
C5 C4 1_555 1_555
H2 C5 1_555 1_555
C6 C5 1_555 1_555
H3 C6 1_555 1_555
C7 C2 1_555 1_555
H4 C7 1_555 1_555
C8 C4 1_555 1_555
C9 C8 1_555 1_555
C10 C9 1_555 1_555
C11 C10 1_555 1_555
H5 C11 1_555 1_555
C12 C11 1_555 1_555
C13 C12 1_555 1_555
H6 C13 1_555 1_555
C14 C13 1_555 1_555
C15 C10 1_555 1_555
H7 C15 1_555 1_555
C16 C12 1_555 1_555
C17 C16 1_555 1_555
C18 C17 1_555 1_555
C19 C18 1_555 1_555
H8 C19 1_555 1_555
C20 C19 1_555 1_555
C21 C20 1_555 1_555
H9 C21 1_555 1_555
C22 C21 1_555 1_555
H10 C22 1_555 1_555
C23 C18 1_555 1_555
H11 C23 1_555 1_555
C24 O3 1_555 1_555
C25 C14 1_555 1_555
H12 C25 1_555 1_555
H13 C25 1_555 1_555
O11 C25 1_555 1_555
O12 C26 1_555 1_555
C26 O11 1_555 1_555
C27 C26 1_555 1_555
H14 C27 1_555 1_555
H15 C27 1_555 1_555
C28 C27 1_555 1_555
H16 C28 1_555 1_555
H17 C28 1_555 1_555
C29 C28 1_555 1_555
H18 C29 1_555 1_555
H19 C29 1_555 1_555
C30 C29 1_555 1_555
H20 C30 1_555 1_555
H21 C30 1_555 1_555
C31 C30 1_555 1_555
H22 C31 1_555 1_555
H23 C31 1_555 1_555
H24 C31 1_555 1_555
C32 O5 1_555 1_555
O13 C56 1_555 1_555
O14 C57 1_555 1_555
C33 C32 1_555 1_555
C34 C33 1_555 1_555
H25 C34 1_555 1_555
C35 C34 1_555 1_555
C36 C35 1_555 1_555
H26 C36 1_555 1_555
C37 C36 1_555 1_555
H27 C37 1_555 1_555
C38 C33 1_555 1_555
H28 C38 1_555 1_555
C39 C35 1_555 1_555
C40 C39 1_555 1_555
C41 C40 1_555 1_555
C42 C41 1_555 1_555
H29 C42 1_555 1_555
C43 C42 1_555 1_555
C44 C43 1_555 1_555
H30 C44 1_555 1_555
C45 C44 1_555 1_555
C46 C41 1_555 1_555
H31 C46 1_555 1_555
C47 C43 1_555 1_555
C48 C47 1_555 1_555
C49 C48 1_555 1_555
C50 C49 1_555 1_555
H32 C50 1_555 1_555
C51 C50 1_555 1_555
C52 C51 1_555 1_555
H33 C52 1_555 1_555
C53 C52 1_555 1_555
H34 C53 1_555 1_555
C54 C49 1_555 1_555
H35 C54 1_555 1_555
C55 O7 1_555 1_555
C56 C45 1_555 1_555
H36 C56 1_555 1_555
H37 C56 1_555 1_555
C57 O13 1_555 1_555
C58 C57 1_555 1_555
H38 C58 1_555 1_555
H39 C58 1_555 1_555
C59 C58 1_555 1_555
H40 C59 1_555 1_555
H41 C59 1_555 1_555
C60 C59 1_555 1_555
H42 C60 1_555 1_555
H43 C60 1_555 1_555
C61 C60 1_555 1_555
H44 C61 1_555 1_555
H45 C61 1_555 1_555
C62 C61 1_555 1_555
H46 C62 1_555 1_555
H47 C62 1_555 1_555
H48 C62 1_555 1_555
Cu1F O1F 1_555 1_555
Cu2F O2F 1_555 1_555
O1F C1F 1_555 1_555
O2F C1F 1_555 1_555
O3F Cu1F 1_555 1_555
O4F Cu2F 1_555 1_555
O5F Cu1F 1_555 1_555
O6F Cu2F 1_555 1_555
O7F Cu1F 1_555 1_555
O8F Cu2F 1_555 1_555
O9F Cu1F 1_555 1_555
O10F Cu2F 1_555 1_555
C1F C2F 1_555 1_555
C2F C3F 1_555 1_555
C3F H1F 1_555 1_555
C4F C3F 1_555 1_555
C5F C4F 1_555 1_555
H2F C5F 1_555 1_555
C6F C5F 1_555 1_555
H3F C6F 1_555 1_555
C7F C2F 1_555 1_555
H4F C7F 1_555 1_555
C8F C4F 1_555 1_555
C9F C8F 1_555 1_555
C10F C9F 1_555 1_555
C11F C10F 1_555 1_555
H5F C11F 1_555 1_555
C12F C11F 1_555 1_555
C13F C12F 1_555 1_555
H6F C13F 1_555 1_555
C14F C13F 1_555 1_555
C15F C10F 1_555 1_555
H7F C15F 1_555 1_555
C16F C12F 1_555 1_555
C17F C16F 1_555 1_555
C18F C17F 1_555 1_555
C19F C18F 1_555 1_555
H8F C19F 1_555 1_555
C20F C24 1_555 1_555
C21F C20F 1_555 1_555
H9F C21F 1_555 1_555
C22F C21F 1_555 1_555
H10F C22F 1_555 1_555
C23F C18F 1_555 1_555
H11F C23F 1_555 1_555
C24F C20 1_555 1_555
C25F C14F 1_555 1_555
H12F C25F 1_555 1_555
H13F C25F 1_555 1_555
O11F C25F 1_555 1_555
O12F C26F 1_555 1_555
C26F O11F 1_555 1_555
C27F C26F 1_555 1_555
H14F C27F 1_555 1_555
H15F C27F 1_555 1_555
C28F C27F 1_555 1_555
H16F C28F 1_555 1_555
H17F C28F 1_555 1_555
C29F C28F 1_555 1_555
H18F C29F 1_555 1_555
H19F C29F 1_555 1_555
C30F C29F 1_555 1_555
H20F C30F 1_555 1_555
H21F C30F 1_555 1_555
C31F C30F 1_555 1_555
H22F C31F 1_555 1_555
H23F C31F 1_555 1_555
H24F C31F 1_555 1_555
C32F O5F 1_555 1_555
O13F C56F 1_555 1_555
O14F C57F 1_555 1_555
C33F C32F 1_555 1_555
C34F C33F 1_555 1_555
H25F C34F 1_555 1_555
C35F C34F 1_555 1_555
C36F C35F 1_555 1_555
H26F C36F 1_555 1_555
C37F C36F 1_555 1_555
H27F C37F 1_555 1_555
C38F C33F 1_555 1_555
H28F C38F 1_555 1_555
C39F C35F 1_555 1_555
C40F C39F 1_555 1_555
C41F C40F 1_555 1_555
C42F C41F 1_555 1_555
H29F C42F 1_555 1_555
C43F C42F 1_555 1_555
C44F C43F 1_555 1_555
H30F C44F 1_555 1_555
C45F C44F 1_555 1_555
C46F C41F 1_555 1_555
H31F C46F 1_555 1_555
C47F C43F 1_555 1_555
C48F C47F 1_555 1_555
C49F C48F 1_555 1_555
C50F C49F 1_555 1_555
H32F C50F 1_555 1_555
C51F C55 1_555 1_555
C52F C51F 1_555 1_555
H33F C52F 1_555 1_555
C53F C52F 1_555 1_555
H34F C53F 1_555 1_555
C54F C49F 1_555 1_555
H35F C54F 1_555 1_555
C55F C51 1_555 1_555
C56F C45F 1_555 1_555
H36F C56F 1_555 1_555
H37F C56F 1_555 1_555
C57F O13F 1_555 1_555
C58F C57F 1_555 1_555
H38F C58F 1_555 1_555
H39F C58F 1_555 1_555
C59F C58F 1_555 1_555
H40F C59F 1_555 1_555
H41F C59F 1_555 1_555
C60F C59F 1_555 1_555
H42F C60F 1_555 1_555
H43F C60F 1_555 1_555
C61F C60F 1_555 1_555
H44F C61F 1_555 1_555
H45F C61F 1_555 1_555
C62F C61F 1_555 1_555
H46F C62F 1_555 1_555
H47F C62F 1_555 1_555
H48F C62F 1_555 1_555
O4 C24 1_555 1_555
O6 C32 1_555 1_555
O8 C55 1_555 1_555
C6 C7 1_555 1_555
C14 C15 1_555 1_555
C22 C23 1_555 1_555
C37 C38 1_555 1_555
C45 C46 1_555 1_555
C53 C54 1_555 1_555
O3F C24F 1_555 1_555
O4F C24F 1_555 1_555
O6F C32F 1_555 1_555
O7F C55F 1_555 1_555
O8F C55F 1_555 1_555
C6F C7F 1_555 1_555
C14F C15F 1_555 1_555
C19F C20F 1_555 1_555
C22F C23F 1_555 1_555
C37F C38F 1_555 1_555
C45F C46F 1_555 1_555
C50F C51F 1_555 1_555
C53F C54F 1_555 1_555

#END
