
#######################################################################
#
#                 Cambridge Crystallographic Data Centre
#                                CCDC 
#
#######################################################################
#
# If this CIF has been generated from an entry in the Cambridge 
# Structural Database, then it will include bibliographic, chemical, 
# crystal, experimental, refinement or atomic coordinate data resulting 
# from the CCDC's data processing and validation procedures.
#
#######################################################################

data_ESADOS
_chemical_formula_moiety         
'C116 H100 Cu4 N8 O12 P4 2+,2(B1 F4 1-),4(C2 H3 N1)'
_chemical_name_systematic        
"(\m~2~-Benzene-1,4-dicarboxylato)-bis(\m~2~-4,4'-(ethane-1,2-diylbis(oxyethane-2,1-diyloxy))bis(N-((6-(diphenylphosphino)pyridin-2-yl)methylene)aniline))-tetra-copper bis(tetrafluoroborate) acetonitrile solvate"
_symmetry_cell_setting           triclinic
_symmetry_space_group_name_H-M   'P -1'
_symmetry_Int_Tables_number      2
_space_group_name_Hall           '-P 1'
loop_
_symmetry_equiv_pos_site_id
_symmetry_equiv_pos_as_xyz
1 x,y,z
2 -x,-y,-z
_cell_length_a                   11.583(2)
_cell_length_b                   16.843(3)
_cell_length_c                   19.661(4)
_cell_angle_alpha                66.03(3)
_cell_angle_beta                 78.91(3)
_cell_angle_gamma                88.69(3)
_cell_volume                     3432.92
_exptl_crystal_colour            red
_exptl_crystal_description       needle
_cell_formula_units_Z            1
loop_
_atom_site_label
_atom_site_type_symbol
_atom_site_fract_x
_atom_site_fract_y
_atom_site_fract_z
C1 C 0.1280(5) -0.3339(4) 0.8262(3)
C2 C 0.1934(7) -0.2598(5) 0.8141(4)
H1 H 0.2140 -0.2150 0.7643
C3 C 0.2291(7) -0.2506(7) 0.8741(5)
H2 H 0.2714 -0.1986 0.8654
C4 C 0.2040(8) -0.3150(7) 0.9448(5)
H3 H 0.2322 -0.3093 0.9850
C5 C 0.1394(8) -0.3869(6) 0.9585(4)
H4 H 0.1213 -0.4315 1.0085
C6 C 0.0986(7) -0.3967(5) 0.8998(4)
H5 H 0.0503 -0.4468 0.9106
C7 C 0.0115(5) -0.4496(4) 0.7819(3)
C8 C 0.0826(5) -0.5175(4) 0.7856(3)
H6 H 0.1654 -0.5060 0.7684
C9 C 0.0347(6) -0.6026(4) 0.8139(3)
H7 H 0.0848 -0.6485 0.8154
C10 C -0.0838(6) -0.6202(4) 0.8396(3)
H8 H -0.1168 -0.6783 0.8602
C11 C -0.1553(6) -0.5521(4) 0.8352(3)
H9 H -0.2380 -0.5639 0.8525
C12 C -0.1088(5) -0.4671(4) 0.8061(3)
H10 H -0.1594 -0.4210 0.8027
C13 C -0.0291(5) -0.2640(3) 0.7251(3)
C14 C -0.1123(5) -0.1553(4) 0.6356(3)
C15 C -0.2007(6) -0.1488(4) 0.6908(4)
H11 H -0.2611 -0.1097 0.6771
C16 C -0.2003(5) -0.2006(4) 0.7673(4)
H12 H -0.2581 -0.1955 0.8065
C17 C -0.1140(5) -0.2592(4) 0.7844(3)
H13 H -0.1122 -0.2959 0.8357
C18 C -0.1063(5) -0.1004(4) 0.5546(3)
H14 H -0.1614 -0.0573 0.5390
C19 C -0.0179(6) -0.0636(4) 0.4264(3)
C20 C 0.0877(7) -0.0699(4) 0.3794(3)
H15 H 0.1478 -0.1030 0.4027
C21 C 0.1071(8) -0.0300(4) 0.3009(4)
H16 H 0.1789 -0.0366 0.2715
C22 C 0.0238(9) 0.0187(5) 0.2659(4)
C23 C -0.0811(10) 0.0275(5) 0.3107(5)
H17 H -0.1395 0.0617 0.2863
C24 C -0.1036(8) -0.0135(5) 0.3923(4)
H18 H -0.1750 -0.0063 0.4218
C25 C 0.152(2) 0.0368(16) 0.1452(13)
H19 H 0.2245 0.0570 0.1547
H20 H 0.1517 -0.0272 0.1624
C26 C 0.150(2) 0.0793(12) 0.0617(10)
H21 H 0.0713 0.0701 0.0521
H22 H 0.2103 0.0571 0.0320
C27 C 0.1512(10) 0.3230(7) -0.0202(4)
H23 H 0.2085 0.3222 -0.0643
H24 H 0.0911 0.3647 -0.0388
C28 C 0.2945(6) 0.4128(5) -0.0126(4)
H25 H 0.2613 0.4616 -0.0506
H26 H 0.3611 0.3927 -0.0402
C29 C 0.3383(7) 0.4436(5) 0.0392(4)
H27 H 0.3969 0.4935 0.0097
H28 H 0.2722 0.4626 0.0681
C30 C 0.4437(5) 0.3865(4) 0.1427(3)
C31 C 0.4593(5) 0.4657(4) 0.1444(3)
H29 H 0.4301 0.5158 0.1095
C32 C 0.5180(5) 0.4731(4) 0.1975(3)
H30 H 0.5313 0.5285 0.1975
C33 C 0.5573(5) 0.3986(4) 0.2508(3)
C34 C 0.5413(6) 0.3197(4) 0.2467(4)
H31 H 0.5704 0.2692 0.2812
C35 C 0.4848(7) 0.3124(5) 0.1945(4)
H32 H 0.4736 0.2572 0.1933
C36 C 0.5926(5) 0.4543(4) 0.3364(3)
H33 H 0.5320 0.4931 0.3225
C37 C 0.6576(5) 0.4566(4) 0.3927(3)
C38 C 0.8037(5) 0.3971(4) 0.4601(3)
C39 C 0.7827(5) 0.4527(4) 0.4973(3)
H34 H 0.8279 0.4503 0.5336
C40 C 0.6969(6) 0.5109(5) 0.4812(4)
H35 H 0.6808 0.5487 0.5064
C41 C 0.6340(5) 0.5132(5) 0.4271(4)
H36 H 0.5751 0.5537 0.4140
C42 C 1.0527(5) 0.3902(3) 0.4164(3)
C43 C 1.0553(5) 0.4819(4) 0.3819(3)
H37 H 0.9856 0.5110 0.3884
C44 C 1.1593(6) 0.5293(4) 0.3384(3)
H38 H 1.1606 0.5911 0.3154
C45 C 1.2599(6) 0.4884(4) 0.3283(4)
H39 H 1.3304 0.5220 0.2979
C46 C 1.2608(6) 0.3975(5) 0.3623(4)
H40 H 1.3315 0.3690 0.3568
C47 C 1.1549(5) 0.3500(4) 0.4043(4)
H41 H 1.1531 0.2882 0.4252
C48 C 0.9349(7) 0.2962(4) 0.5714(3)
C49 C 1.0385(8) 0.3114(5) 0.5902(4)
H42 H 1.1066 0.3383 0.5521
C50 C 1.0396(14) 0.2851(8) 0.6695(7)
H43 H 1.1088 0.2972 0.6837
C51 C 0.9453(16) 0.2439(7) 0.7236(6)
H44 H 0.9502 0.2235 0.7756
C52 C 0.8448(13) 0.2316(5) 0.7049(5)
H45 H 0.7778 0.2050 0.7441
C53 C 0.8347(9) 0.2571(5) 0.6279(4)
H46 H 0.7625 0.2478 0.6153
C54 C 0.3181(5) -0.1392(3) 0.5547(3)
C55 C 0.4120(5) -0.0666(3) 0.5265(3)
C56 C 0.4870(6) -0.0643(4) 0.5726(3)
H47 H 0.4778 -0.1081 0.6228
C57 C 0.4240(5) -0.0014(4) 0.4540(3)
H48 H 0.3715 -0.0016 0.4224
N1 N -0.0281(4) -0.2127(3) 0.6524(2)
N2 N -0.0261(4) -0.1115(3) 0.5056(3)
N3 N 0.6169(4) 0.4007(3) 0.3063(3)
N4 N 0.7410(4) 0.3983(3) 0.4086(2)
O1 O 0.044(2) 0.061(2) 0.1890(18)
O2 O 0.1791(18) 0.1811(10) 0.0416(7)
O3 O 0.2082(5) 0.3448(4) 0.0275(3)
O4 O 0.3914(5) 0.3723(3) 0.0898(3)
C58 C 0.087(3) 0.2205(13) 0.0373(10)
H49 H 0.0439 0.2165 0.0874
H50 H 0.0332 0.2005 0.0129
O5 O 0.3378(4) -0.2095(3) 0.6054(2)
O6 O 0.2295(3) -0.1247(2) 0.5251(2)
P1 P 0.08784(12) -0.34159(9) 0.74368(7)
P2 P 0.92148(12) 0.32056(9) 0.47368(8)
Cu1 Cu 0.23935(5) -0.32198(4) 0.65276(3)
Cu2 Cu 0.09015(5) -0.20929(4) 0.55483(3)
C1A C 0.8720(5) 0.3339(4) 0.1738(3)
C2A C 0.8066(7) 0.2598(5) 0.1859(4)
H1A H 0.7860 0.2150 0.2357
C3A C 0.7709(7) 0.2506(7) 0.1259(5)
H2A H 0.7286 0.1986 0.1346
C4A C 0.7960(8) 0.3150(7) 0.0552(5)
H3A H 0.7678 0.3093 0.0150
C5A C 0.8606(8) 0.3869(6) 0.0415(4)
H4A H 0.8787 0.4315 -0.0085
C6A C 0.9014(7) 0.3967(5) 0.1002(4)
H5A H 0.9497 0.4468 0.0894
C7A C 0.9885(5) 0.4496(4) 0.2181(3)
C8A C 0.9174(5) 0.5175(4) 0.2144(3)
H6A H 0.8346 0.5060 0.2316
C9A C 0.9653(6) 0.6026(4) 0.1861(3)
H7A H 0.9152 0.6485 0.1846
C10A C 1.0838(6) 0.6202(4) 0.1604(3)
H8A H 1.1168 0.6783 0.1398
C11A C 1.1553(6) 0.5521(4) 0.1648(3)
H9A H 1.2380 0.5639 0.1475
C12A C 1.1088(5) 0.4671(4) 0.1939(3)
H10A H 1.1594 0.4210 0.1973
C13A C 1.0291(5) 0.2640(3) 0.2749(3)
C14A C 1.1123(5) 0.1553(4) 0.3644(3)
C15A C 1.2007(6) 0.1488(4) 0.3092(4)
H11A H 1.2611 0.1097 0.3229
C16A C 1.2003(5) 0.2006(4) 0.2327(4)
H12A H 1.2581 0.1955 0.1935
C17A C 1.1140(5) 0.2592(4) 0.2156(3)
H13A H 1.1122 0.2959 0.1643
C18A C 1.1063(5) 0.1004(4) 0.4454(3)
H14A H 1.1614 0.0573 0.4610
C19A C 1.0179(6) 0.0636(4) 0.5736(3)
C20A C 0.9123(7) 0.0699(4) 0.6206(3)
H15A H 0.8522 0.1030 0.5973
C21A C 0.8929(8) 0.0300(4) 0.6991(4)
H16A H 0.8211 0.0366 0.7285
C22A C 0.9762(9) -0.0187(5) 0.7341(4)
C23A C 1.0811(10) -0.0275(5) 0.6893(5)
H17A H 1.1395 -0.0617 0.7137
C24A C 1.1036(8) 0.0135(5) 0.6077(4)
H18A H 1.1750 0.0063 0.5782
C25A C 0.848(2) -0.0368(16) 0.8548(13)
H19A H 0.7755 -0.0570 0.8453
H20A H 0.8483 0.0272 0.8376
C26A C 0.850(2) -0.0793(12) 0.9383(10)
H21A H 0.9287 -0.0701 0.9479
H22A H 0.7897 -0.0571 0.9680
C27A C 0.8488(10) -0.3230(7) 1.0202(4)
H23A H 0.7915 -0.3222 1.0643
H24A H 0.9089 -0.3647 1.0388
C28A C 0.7055(6) -0.4128(5) 1.0126(4)
H25A H 0.7387 -0.4616 1.0506
H26A H 0.6389 -0.3927 1.0402
C29A C 0.6617(7) -0.4436(5) 0.9608(4)
H27A H 0.6031 -0.4935 0.9903
H28A H 0.7278 -0.4626 0.9319
C30A C 0.5563(5) -0.3865(4) 0.8573(3)
C31A C 0.5407(5) -0.4657(4) 0.8556(3)
H29A H 0.5699 -0.5158 0.8905
C32A C 0.4820(5) -0.4731(4) 0.8025(3)
H30A H 0.4687 -0.5285 0.8025
C33A C 0.4427(5) -0.3986(4) 0.7492(3)
C34A C 0.4587(6) -0.3197(4) 0.7533(4)
H31A H 0.4296 -0.2692 0.7188
C35A C 0.5152(7) -0.3124(5) 0.8055(4)
H32A H 0.5264 -0.2572 0.8067
C36A C 0.4074(5) -0.4543(4) 0.6636(3)
H33A H 0.4680 -0.4931 0.6775
C37A C 0.3424(5) -0.4566(4) 0.6073(3)
C38A C 0.1963(5) -0.3971(4) 0.5399(3)
C39A C 0.2173(5) -0.4527(4) 0.5027(3)
H34A H 0.1721 -0.4503 0.4664
C40A C 0.3031(6) -0.5109(5) 0.5188(4)
H35A H 0.3192 -0.5487 0.4936
C41A C 0.3660(5) -0.5132(5) 0.5729(4)
H36A H 0.4249 -0.5537 0.5860
C42A C -0.0527(5) -0.3902(3) 0.5836(3)
C43A C -0.0553(5) -0.4819(4) 0.6181(3)
H37A H 0.0144 -0.5110 0.6116
C44A C -0.1593(6) -0.5293(4) 0.6616(3)
H38A H -0.1606 -0.5911 0.6846
C45A C -0.2599(6) -0.4884(4) 0.6717(4)
H39A H -0.3304 -0.5220 0.7021
C46A C -0.2608(6) -0.3975(5) 0.6377(4)
H40A H -0.3315 -0.3690 0.6432
C47A C -0.1549(5) -0.3500(4) 0.5957(4)
H41A H -0.1531 -0.2882 0.5748
C48A C 0.0651(7) -0.2962(4) 0.4286(3)
C49A C -0.0385(8) -0.3114(5) 0.4098(4)
H42A H -0.1066 -0.3383 0.4479
C50A C -0.0396(14) -0.2851(8) 0.3305(7)
H43A H -0.1088 -0.2972 0.3163
C51A C 0.0547(16) -0.2439(7) 0.2764(6)
H44A H 0.0498 -0.2235 0.2244
C52A C 0.1552(13) -0.2316(5) 0.2951(5)
H45A H 0.2222 -0.2050 0.2559
C53A C 0.1653(9) -0.2571(5) 0.3721(4)
H46A H 0.2375 -0.2478 0.3847
C54A C 0.6819(5) 0.1392(3) 0.4453(3)
C55A C 0.5880(5) 0.0666(3) 0.4735(3)
C56A C 0.5130(6) 0.0643(4) 0.4274(3)
H47A H 0.5222 0.1081 0.3772
C57A C 0.5760(5) 0.0014(4) 0.5460(3)
H48A H 0.6285 0.0016 0.5776
N1A N 1.0281(4) 0.2127(3) 0.3476(2)
N2A N 1.0261(4) 0.1115(3) 0.4944(3)
N3A N 0.3831(4) -0.4007(3) 0.6937(3)
N4A N 0.2590(4) -0.3983(3) 0.5914(2)
O1A O 0.956(2) -0.061(2) 0.8110(18)
O2A O 0.8209(18) -0.1811(10) 0.9584(7)
O3A O 0.7918(5) -0.3448(4) 0.9725(3)
O4A O 0.6086(5) -0.3723(3) 0.9102(3)
C58A C 0.913(3) -0.2205(13) 0.9627(10)
H49A H 0.9561 -0.2165 0.9126
H50A H 0.9668 -0.2005 0.9871
O5A O 0.6622(4) 0.2095(3) 0.3946(2)
O6A O 0.7705(3) 0.1247(2) 0.4749(2)
P1A P 0.91216(12) 0.34159(9) 0.25632(7)
P2A P 0.07852(12) -0.32056(9) 0.52632(8)
Cu1A Cu 0.76065(5) 0.32198(4) 0.34724(3)
Cu2A Cu 0.90985(5) 0.20929(4) 0.44517(3)
B1 B 1.4947(11) 0.0115(7) 0.2349(6)
F1 F 1.517(2) 0.0012(14) 0.1681(9)
F2 F 1.4412(18) 0.0882(10) 0.2268(12)
F3 F 1.6002(15) 0.0133(16) 0.2587(13)
F4 F 1.421(2) -0.0574(11) 0.2913(11)
C59 C 0.5355(11) 0.2644(9) -0.0298(11)
N5 N 0.5839(11) 0.3120(9) -0.0810(11)
C60 C 0.4598(17) 0.2004(11) 0.0416(10)
H51 H 0.3943 0.2300 0.0589
H52 H 0.5070 0.1760 0.0809
H53 H 0.4286 0.1535 0.0316
C61 C 0.5748(19) 0.7487(15) 0.4486(12)
N6 N 0.531(3) 0.704(2) 0.4507(17)
C62 C 0.640(4) 0.817(3) 0.450(2)
H54 H 0.7230 0.8155 0.4281
H55 H 0.6325 0.8097 0.5027
H56 H 0.6098 0.8724 0.4205
N7 N 0.672(2) 0.6571(15) 0.2274(13)
C63 C 0.600(3) 0.700(2) 0.230(2)
C64 C 0.473(3) 0.716(3) 0.256(2)
H57 H 0.4206 0.6932 0.2339
H58 H 0.4640 0.7788 0.2407
H59 H 0.4513 0.6866 0.3120
C65? C 0.109(2) 0.0460(16) 0.1406(13)
C66? C 0.093(2) 0.1007(13) 0.0629(11)
C67? C 0.091(3) 0.2444(13) 0.0100(10)
F5? F 1.4572(18) 0.0756(11) 0.2587(12)
F6? F 1.4054(17) -0.0124(15) 0.2069(13)
F7? F 1.5924(16) 0.0439(14) 0.1755(10)
F8? F 1.524(2) -0.0602(12) 0.2929(9)
H60? H 0.1068 -0.0161 0.1491
H61? H 0.1863 0.0614 0.1478
H62? H 0.0973 0.0633 0.0347
H63? H 0.0132 0.1222 0.0662
H64? H 0.0393 0.2445 -0.0244
H65? H 0.0401 0.2374 0.0589
O7? O 0.0189(19) 0.059(2) 0.1923(18)
O8? O 0.1659(17) 0.1654(10) 0.0244(7)
loop_
_geom_bond_atom_site_label_1
_geom_bond_atom_site_label_2
_geom_bond_site_symmetry_1
_geom_bond_site_symmetry_2
C1 C2 1_555 1_555
C2 H1 1_555 1_555
C3 C2 1_555 1_555
H2 C3 1_555 1_555
C4 C3 1_555 1_555
H3 C4 1_555 1_555
C5 C4 1_555 1_555
H4 C5 1_555 1_555
C6 C1 1_555 1_555
H5 C6 1_555 1_555
C7 C8 1_555 1_555
C8 H6 1_555 1_555
C9 C8 1_555 1_555
H7 C9 1_555 1_555
C10 C9 1_555 1_555
H8 C10 1_555 1_555
C11 C10 1_555 1_555
H9 C11 1_555 1_555
C12 C7 1_555 1_555
H10 C12 1_555 1_555
C13 C17 1_555 1_555
C14 C15 1_555 1_555
C15 H11 1_555 1_555
C16 C15 1_555 1_555
H12 C16 1_555 1_555
C17 C16 1_555 1_555
H13 C17 1_555 1_555
C18 C14 1_555 1_555
H14 C18 1_555 1_555
C19 C20 1_555 1_555
C20 H15 1_555 1_555
C21 C20 1_555 1_555
H16 C21 1_555 1_555
C22 C21 1_555 1_555
C23 C22 1_555 1_555
H17 C23 1_555 1_555
C24 C19 1_555 1_555
H18 C24 1_555 1_555
C25 H19 1_555 1_555
H20 C25 1_555 1_555
C26 C25 1_555 1_555
H21 C26 1_555 1_555
H22 C26 1_555 1_555
C27 H23 1_555 1_555
H24 C27 1_555 1_555
C28 H25 1_555 1_555
H26 C28 1_555 1_555
C29 C28 1_555 1_555
H27 C29 1_555 1_555
H28 C29 1_555 1_555
C30 C31 1_555 1_555
C31 H29 1_555 1_555
C32 C31 1_555 1_555
H30 C32 1_555 1_555
C33 C32 1_555 1_555
C34 C33 1_555 1_555
H31 C34 1_555 1_555
C35 C30 1_555 1_555
H32 C35 1_555 1_555
C36 H33 1_555 1_555
C37 C36 1_555 1_555
C38 C39 1_555 1_555
C39 H34 1_555 1_555
C40 C39 1_555 1_555
H35 C40 1_555 1_555
C41 C37 1_555 1_555
H36 C41 1_555 1_555
C42 C43 1_555 1_555
C43 H37 1_555 1_555
C44 C43 1_555 1_555
H38 C44 1_555 1_555
C45 C44 1_555 1_555
H39 C45 1_555 1_555
C46 C45 1_555 1_555
H40 C46 1_555 1_555
C47 C42 1_555 1_555
H41 C47 1_555 1_555
C48 C49 1_555 1_555
C49 H42 1_555 1_555
C50 C49 1_555 1_555
H43 C50 1_555 1_555
C51 C50 1_555 1_555
H44 C51 1_555 1_555
C52 C51 1_555 1_555
H45 C52 1_555 1_555
C53 C48 1_555 1_555
H46 C53 1_555 1_555
C54 C55 1_555 1_555
C55 C56 1_555 1_555
C56 H47 1_555 1_555
C57 C55 1_555 1_555
H48 C57 1_555 1_555
N1 C13 1_555 1_555
N2 C18 1_555 1_555
N3 C33 1_555 1_555
N4 C37 1_555 1_555
O1 C22 1_555 1_555
O2 C26 1_555 1_555
O3 C27 1_555 1_555
O4 C29 1_555 1_555
C58 C27 1_555 1_555
H49 C58 1_555 1_555
H50 C58 1_555 1_555
O5 C54 1_555 1_555
O6 C54 1_555 1_555
B1 F1 1_555 1_555
F2 B1 1_555 1_555
F3 B1 1_555 1_555
F4 B1 1_555 1_555
C59 N5 1_555 1_555
C60 C59 1_555 1_555
H51 C60 1_555 1_555
H52 C60 1_555 1_555
H53 C60 1_555 1_555
C61 N6 1_555 1_555
C62 C61 1_555 1_555
H54 C62 1_555 1_555
H55 C62 1_555 1_555
H56 C62 1_555 1_555
N7 C63 1_555 1_555
C63 C64 1_555 1_555
C64 H57 1_555 1_555
H58 C64 1_555 1_555
H59 C64 1_555 1_555
P1 C1 1_555 1_555
P2 C38 1_555 1_555
Cu1 O5 1_555 1_555
Cu2 N1 1_555 1_555
C1A C2A 1_555 1_555
C2A H1A 1_555 1_555
C3A C2A 1_555 1_555
H2A C3A 1_555 1_555
C4A C3A 1_555 1_555
H3A C4A 1_555 1_555
C5A C4A 1_555 1_555
H4A C5A 1_555 1_555
C6A C1A 1_555 1_555
H5A C6A 1_555 1_555
C7A C8A 1_555 1_555
C8A H6A 1_555 1_555
C9A C8A 1_555 1_555
H7A C9A 1_555 1_555
C10A C9A 1_555 1_555
H8A C10A 1_555 1_555
C11A C10A 1_555 1_555
H9A C11A 1_555 1_555
C12A C7A 1_555 1_555
H10A C12A 1_555 1_555
C13A C17A 1_555 1_555
C14A C15A 1_555 1_555
C15A H11A 1_555 1_555
C16A C15A 1_555 1_555
H12A C16A 1_555 1_555
C17A C16A 1_555 1_555
H13A C17A 1_555 1_555
C18A C14A 1_555 1_555
H14A C18A 1_555 1_555
C19A C20A 1_555 1_555
C20A H15A 1_555 1_555
C21A C20A 1_555 1_555
H16A C21A 1_555 1_555
C22A C21A 1_555 1_555
C23A C22A 1_555 1_555
H17A C23A 1_555 1_555
C24A C19A 1_555 1_555
H18A C24A 1_555 1_555
C25A H19A 1_555 1_555
H20A C25A 1_555 1_555
C26A C25A 1_555 1_555
H21A C26A 1_555 1_555
H22A C26A 1_555 1_555
C27A H23A 1_555 1_555
H24A C27A 1_555 1_555
C28A H25A 1_555 1_555
H26A C28A 1_555 1_555
C29A C28A 1_555 1_555
H27A C29A 1_555 1_555
H28A C29A 1_555 1_555
C30A C31A 1_555 1_555
C31A H29A 1_555 1_555
C32A C31A 1_555 1_555
H30A C32A 1_555 1_555
C33A C32A 1_555 1_555
C34A C33A 1_555 1_555
H31A C34A 1_555 1_555
C35A C30A 1_555 1_555
H32A C35A 1_555 1_555
C36A H33A 1_555 1_555
C37A C36A 1_555 1_555
C38A C39A 1_555 1_555
C39A H34A 1_555 1_555
C40A C39A 1_555 1_555
H35A C40A 1_555 1_555
C41A C37A 1_555 1_555
H36A C41A 1_555 1_555
C42A C43A 1_555 1_555
C43A H37A 1_555 1_555
C44A C43A 1_555 1_555
H38A C44A 1_555 1_555
C45A C44A 1_555 1_555
H39A C45A 1_555 1_555
C46A C45A 1_555 1_555
H40A C46A 1_555 1_555
C47A C42A 1_555 1_555
H41A C47A 1_555 1_555
C48A C49A 1_555 1_555
C49A H42A 1_555 1_555
C50A C49A 1_555 1_555
H43A C50A 1_555 1_555
C51A C50A 1_555 1_555
H44A C51A 1_555 1_555
C52A C51A 1_555 1_555
H45A C52A 1_555 1_555
C53A C48A 1_555 1_555
H46A C53A 1_555 1_555
C54A C55A 1_555 1_555
C55A C56A 1_555 1_555
C56A C57 1_555 1_555
H47A C56A 1_555 1_555
C57A C56 1_555 1_555
H48A C57A 1_555 1_555
N1A C13A 1_555 1_555
N2A C18A 1_555 1_555
N3A Cu1 1_555 1_555
N4A Cu1 1_555 1_555
O1A C22A 1_555 1_555
O2A C26A 1_555 1_555
O3A C27A 1_555 1_555
O4A C29A 1_555 1_555
C58A C27A 1_555 1_555
H49A C58A 1_555 1_555
H50A C58A 1_555 1_555
O5A C54A 1_555 1_555
O6A C54A 1_555 1_555
P1A C1A 1_555 1_555
P2A Cu2 1_555 1_555
Cu1A N3 1_555 1_555
Cu2A P2 1_555 1_555
C5 C6 1_555 1_555
C7 P1 1_555 1_555
C11 C12 1_555 1_555
C13 P1 1_555 1_555
C14 N1 1_555 1_555
C19 N2 1_555 1_555
C23 C24 1_555 1_555
C25 O1 1_555 1_555
C28 O3 1_555 1_555
C30 O4 1_555 1_555
C34 C35 1_555 1_555
C36 N3 1_555 1_555
C38 N4 1_555 1_555
C40 C41 1_555 1_555
C42 P2 1_555 1_555
C46 C47 1_555 1_555
C48 P2 1_555 1_555
C52 C53 1_555 1_555
N2 Cu2 1_555 1_555
N4 Cu1A 1_555 1_555
O2 C58 1_555 1_555
O6 Cu2 1_555 1_555
P1 Cu1 1_555 1_555
C5A C6A 1_555 1_555
C7A P1A 1_555 1_555
C11A C12A 1_555 1_555
C13A P1A 1_555 1_555
C14A N1A 1_555 1_555
C19A N2A 1_555 1_555
C23A C24A 1_555 1_555
C25A O1A 1_555 1_555
C28A O3A 1_555 1_555
C30A O4A 1_555 1_555
C33A N3A 1_555 1_555
C34A C35A 1_555 1_555
C36A N3A 1_555 1_555
C37A N4A 1_555 1_555
C38A N4A 1_555 1_555
C38A P2A 1_555 1_555
C40A C41A 1_555 1_555
C42A P2A 1_555 1_555
C46A C47A 1_555 1_555
C48A P2A 1_555 1_555
C52A C53A 1_555 1_555
C55A C57A 1_555 1_555
N1A Cu2A 1_555 1_555
N2A Cu2A 1_555 1_555
O2A C58A 1_555 1_555
O5A Cu1A 1_555 1_555
O6A Cu2A 1_555 1_555
P1A Cu1A 1_555 1_555

#END
