
#######################################################################
#
#                 Cambridge Crystallographic Data Centre
#                                CCDC 
#
#######################################################################
#
# If this CIF has been generated from an entry in the Cambridge 
# Structural Database, then it will include bibliographic, chemical, 
# crystal, experimental, refinement or atomic coordinate data resulting 
# from the CCDC's data processing and validation procedures.
#
#######################################################################

data_ESEYUW
_chemical_formula_moiety         
'C28 H40 Ag2 N4 O2 Si4 2+,2(C1 F3 O3 S1 1-),2(C1 H4 O1)'
_chemical_name_systematic        
"bis(\m~2~-1,3-bis(4-Pyridyl)tetramethyldisiloxane-N,N')-di-silver(i) bis(trifluoromethanesulfonate) methanol solvate"
_symmetry_cell_setting           monoclinic
_symmetry_space_group_name_H-M   'P 21/c'
_symmetry_Int_Tables_number      14
_space_group_name_Hall           '-P 2ybc'
loop_
_symmetry_equiv_pos_site_id
_symmetry_equiv_pos_as_xyz
1 x,y,z
2 -x,1/2+y,1/2-z
3 -x,-y,-z
4 x,1/2-y,1/2+z
_cell_length_a                   8.6214(7)
_cell_length_b                   27.421(2)
_cell_length_c                   9.9035(9)
_cell_angle_alpha                90
_cell_angle_beta                 92.446(2)
_cell_angle_gamma                90
_cell_volume                     2339.13
_cell_formula_units_Z            2
loop_
_atom_site_label
_atom_site_type_symbol
_atom_site_fract_x
_atom_site_fract_y
_atom_site_fract_z
Ag1 Ag -0.18053(6) 0.503582(16) 0.38277(5)
Si1 Si 0.23532(17) 0.68820(5) 0.10481(16)
Si2 Si 0.54147(17) 0.67778(5) 0.28228(17)
O1 O 0.3841(4) 0.70050(13) 0.2086(4)
N1 N -0.0417(5) 0.55944(16) 0.2960(5)
N2 N -0.3264(5) 0.44993(16) 0.4713(5)
C1 C 0.0029(6) 0.55744(19) 0.1676(5)
H1 H -0.0246 0.5291 0.1147
C2 C 0.0858(6) 0.59387(19) 0.1083(5)
H2 H 0.1175 0.5899 0.0172
C3 C 0.1241(6) 0.63609(18) 0.1782(5)
C4 C 0.0768(6) 0.6381(2) 0.3119(5)
H3 H 0.1017 0.6663 0.3663
C5 C -0.0051(6) 0.6001(2) 0.3664(5)
H4 H -0.0370 0.6027 0.4578
C6 C -0.3841(7) 0.45733(19) 0.5929(6)
H5 H -0.3741 0.4892 0.6327
C7 C -0.4574(6) 0.42118(18) 0.6638(5)
H6 H -0.4974 0.4285 0.7505
C8 C 0.4740(5) 0.62554(17) 0.3887(5)
C9 C 0.4190(7) 0.6325(2) 0.5192(5)
H7 H 0.4304 0.6637 0.5626
C10 C -0.3490(7) 0.4053(2) 0.4155(6)
H8 H -0.3145 0.3998 0.3259
C11 C 0.1094(8) 0.7429(2) 0.0983(8)
H9 H 0.0789 0.7507 0.1879
H10 H 0.0187 0.7364 0.0416
H11 H 0.1654 0.7698 0.0622
C12 C 0.2974(8) 0.6709(3) -0.0666(7)
H12 H 0.3617 0.6424 -0.0600
H13 H 0.3549 0.6973 -0.1040
H14 H 0.2075 0.6642 -0.1241
C13 C 0.6323(9) 0.7253(2) 0.3927(8)
H15 H 0.5598 0.7356 0.4578
H16 H 0.6610 0.7526 0.3387
H17 H 0.7232 0.7122 0.4388
C14 C 0.6721(7) 0.6552(3) 0.1518(8)
H18 H 0.7055 0.6822 0.0983
H19 H 0.6174 0.6321 0.0946
H20 H 0.7609 0.6397 0.1949
C7B C 0.4574(6) 0.57882(18) 0.3362(5)
C6B C 0.3841(7) 0.54267(19) 0.4071(6)
N2B N 0.3264(5) 0.55007(16) 0.5287(5)
Ag1B Ag 0.18053(6) 0.496418(16) 0.61723(5)
N1B N 0.0417(5) 0.44056(16) 0.7040(5)
C1B C -0.0029(6) 0.44256(19) 0.8324(5)
H1B H 0.0246 0.4709 0.8853
C2B C -0.0858(6) 0.40613(19) 0.8917(5)
H2B H -0.1175 0.4101 0.9828
C3B C -0.1241(6) 0.36391(18) 0.8218(5)
Si1B Si -0.23532(17) 0.31180(5) 0.89519(16)
O1B O -0.3841(4) 0.29950(13) 0.7914(4)
Si2B Si -0.54147(17) 0.32222(5) 0.71772(17)
C8B C -0.4740(5) 0.37446(17) 0.6113(5)
C9B C -0.4190(7) 0.3675(2) 0.4808(5)
H7B H -0.4304 0.3363 0.4374
C13B C -0.6323(9) 0.2747(2) 0.6073(8)
H15B H -0.5598 0.2644 0.5422
H16B H -0.6610 0.2474 0.6613
H17B H -0.7232 0.2878 0.5612
C14B C -0.6721(7) 0.3448(3) 0.8482(8)
H18B H -0.7055 0.3178 0.9017
H19B H -0.6174 0.3679 0.9054
H20B H -0.7609 0.3603 0.8051
C11B C -0.1094(8) 0.2571(2) 0.9017(8)
H9B H -0.0789 0.2493 0.8121
H10B H -0.0187 0.2636 0.9584
H11B H -0.1654 0.2302 0.9378
C12B C -0.2974(8) 0.3291(3) 1.0666(7)
H12B H -0.3617 0.3576 1.0600
H13B H -0.3549 0.3027 1.1040
H14B H -0.2075 0.3358 1.1241
C4B C -0.0768(6) 0.3619(2) 0.6881(5)
H3B H -0.1017 0.3337 0.6337
C5B C 0.0051(6) 0.3999(2) 0.6336(5)
H4B H 0.0370 0.3973 0.5422
C10B C 0.3490(7) 0.5947(2) 0.5845(6)
H8B H 0.3145 0.6002 0.6741
H5B H 0.3741 0.5108 0.3673
H6B H 0.4974 0.5715 0.2495
C15 C 0.1819(9) 0.3608(2) 0.2395(7)
F1 F 0.1435(9) 0.33680(16) 0.3441(5)
F2 F 0.3334(6) 0.35436(19) 0.2257(6)
F3 F 0.1139(5) 0.34015(14) 0.1323(4)
S1 S 0.13179(18) 0.42497(5) 0.25127(15)
O2 O 0.1932(6) 0.4456(2) 0.1340(5)
O3 O 0.2059(6) 0.43868(17) 0.3768(5)
O4 O -0.0321(6) 0.4240(2) 0.2497(6)
O5 O 0.4467(12) 0.5186(4) 0.9554(11)
C16 C 0.3422(19) 0.4865(6) 0.9059(18)
loop_
_geom_bond_atom_site_label_1
_geom_bond_atom_site_label_2
_geom_bond_site_symmetry_1
_geom_bond_site_symmetry_2
Ag1 N1 1_555 1_555
Si1 O1 1_555 1_555
Si2 O1 1_555 1_555
N1 C1 1_555 1_555
N2 Ag1 1_555 1_555
C1 H1 1_555 1_555
C2 C1 1_555 1_555
H2 C2 1_555 1_555
C3 Si1 1_555 1_555
C4 C3 1_555 1_555
H3 C4 1_555 1_555
C5 N1 1_555 1_555
H4 C5 1_555 1_555
C6 N2 1_555 1_555
H5 C6 1_555 1_555
C7 C6 1_555 1_555
H6 C7 1_555 1_555
C8 Si2 1_555 1_555
C9 C8 1_555 1_555
H7 C9 1_555 1_555
C10 N2 1_555 1_555
H8 C10 1_555 1_555
C11 Si1 1_555 1_555
H9 C11 1_555 1_555
H10 C11 1_555 1_555
H11 C11 1_555 1_555
C12 Si1 1_555 1_555
H12 C12 1_555 1_555
H13 C12 1_555 1_555
H14 C12 1_555 1_555
C13 Si2 1_555 1_555
H15 C13 1_555 1_555
H16 C13 1_555 1_555
H17 C13 1_555 1_555
C14 Si2 1_555 1_555
H18 C14 1_555 1_555
H19 C14 1_555 1_555
H20 C14 1_555 1_555
C15 F1 1_555 1_555
F2 C15 1_555 1_555
F3 C15 1_555 1_555
S1 C15 1_555 1_555
O2 S1 1_555 1_555
O3 S1 1_555 1_555
O4 S1 1_555 1_555
O5 C16 1_555 1_555
C7B C8 1_555 1_555
C6B C7B 1_555 1_555
N2B C6B 1_555 1_555
Ag1B N2B 1_555 1_555
N1B Ag1B 1_555 1_555
C1B N1B 1_555 1_555
H1B C1B 1_555 1_555
C2B C1B 1_555 1_555
H2B C2B 1_555 1_555
C3B C2B 1_555 1_555
Si1B C3B 1_555 1_555
O1B Si1B 1_555 1_555
Si2B O1B 1_555 1_555
C8B C7 1_555 1_555
C9B C10 1_555 1_555
H7B C9B 1_555 1_555
C13B Si2B 1_555 1_555
H15B C13B 1_555 1_555
H16B C13B 1_555 1_555
H17B C13B 1_555 1_555
C14B Si2B 1_555 1_555
H18B C14B 1_555 1_555
H19B C14B 1_555 1_555
H20B C14B 1_555 1_555
C11B Si1B 1_555 1_555
H9B C11B 1_555 1_555
H10B C11B 1_555 1_555
H11B C11B 1_555 1_555
C12B Si1B 1_555 1_555
H12B C12B 1_555 1_555
H13B C12B 1_555 1_555
H14B C12B 1_555 1_555
C4B C3B 1_555 1_555
H3B C4B 1_555 1_555
C5B N1B 1_555 1_555
H4B C5B 1_555 1_555
C10B C9 1_555 1_555
H8B C10B 1_555 1_555
H5B C6B 1_555 1_555
H6B C7B 1_555 1_555
C2 C3 1_555 1_555
C4 C5 1_555 1_555
N2B C10B 1_555 1_555
Si2B C8B 1_555 1_555
C8B C9B 1_555 1_555
C4B C5B 1_555 1_555

#END
