
#######################################################################
#
#                 Cambridge Crystallographic Data Centre
#                                CCDC 
#
#######################################################################
#
# If this CIF has been generated from an entry in the Cambridge 
# Structural Database, then it will include bibliographic, chemical, 
# crystal, experimental, refinement or atomic coordinate data resulting 
# from the CCDC's data processing and validation procedures.
#
#######################################################################

data_EWIBUJ
_chemical_formula_moiety         'C60 H54 N12 O30 Pd3,3(C2 H6 O1 S1)'
_chemical_name_systematic        
'bis(\m-tris(2-(pyridin-2-yl)ethyl) benzene-1,3,5-tricarboxylato)-hexakis(nitrato)-tri-palladium(ii) dimethyl sulfoxide solvate'
_symmetry_cell_setting           rhombohedral
_symmetry_space_group_name_H-M   'R 3 c'
_symmetry_Int_Tables_number      161
_space_group_name_Hall           'R 3 -2"c'
loop_
_symmetry_equiv_pos_site_id
_symmetry_equiv_pos_as_xyz
1 x,y,z
2 -y,x-y,z
3 -x+y,-x,z
4 -y,-x,1/2+z
5 -x+y,y,1/2+z
6 x,x-y,1/2+z
7 2/3+x,1/3+y,1/3+z
8 2/3-y,1/3+x-y,1/3+z
9 2/3-x+y,1/3-x,1/3+z
10 2/3-y,1/3-x,5/6+z
11 2/3-x+y,1/3+y,5/6+z
12 2/3+x,1/3+x-y,5/6+z
13 1/3+x,2/3+y,2/3+z
14 1/3-y,2/3+x-y,2/3+z
15 1/3-x+y,2/3-x,2/3+z
16 1/3-y,2/3-x,1/6+z
17 1/3-x+y,2/3+y,1/6+z
18 1/3+x,2/3+x-y,1/6+z
_cell_length_a                   25.4354(4)
_cell_length_b                   25.4354(4)
_cell_length_c                   21.3755(6)
_cell_angle_alpha                90
_cell_angle_beta                 90
_cell_angle_gamma                120
_cell_volume                     11976.3
_exptl_crystal_colour            yellow
_exptl_crystal_description       block
_cell_formula_units_Z            6
loop_
_atom_site_label
_atom_site_type_symbol
_atom_site_fract_x
_atom_site_fract_y
_atom_site_fract_z
Pd1 Pd 0.89085(4) 0.66582(5) 0.63488(7)
O1 O 0.8191(3) 0.4520(3) 0.6915(4)
O2 O 0.8281(4) 0.3728(4) 0.7238(5)
O3 O 0.7008(6) 0.4877(6) 0.5692(6)
O4 O 0.9144(6) 0.6900(6) 0.7234(5)
O5 O 0.8297(4) 0.6113(5) 0.7528(5)
O6 O 0.8910(6) 0.6711(7) 0.8213(7)
O7 O 0.8704(6) 0.6396(6) 0.5448(5)
O8 O 0.8989(14) 0.7286(8) 0.5198(9)
O9 O 0.8532(8) 0.6566(7) 0.4498(6)
N1 N 0.9619(4) 0.6507(4) 0.6303(5)
N2 N 0.8218(5) 0.6835(4) 0.6395(5)
N3 N 0.8751(7) 0.6558(8) 0.7694(6)
N4 N 0.8762(8) 0.6780(7) 0.5098(9)
C1 C 1.0181(6) 0.6973(6) 0.6160(6)
H1 H 1.0223 0.7356 0.6059
C2 C 1.0688(6) 0.6918(7) 0.6152(7)
H2 H 1.1073 0.7256 0.6053
C3 C 1.0632(6) 0.6374(7) 0.6290(7)
H3 H 1.0974 0.6319 0.6274
C4 C 1.0071(5) 0.5904(6) 0.6452(6)
H4 H 1.0032 0.5526 0.6571
C5 C 0.9561(5) 0.5965(5) 0.6447(5)
C6 C 0.8921(6) 0.5446(5) 0.6575(8)
H5 H 0.8725 0.5597 0.6867
H6 H 0.8692 0.5347 0.6177
C7 C 0.8846(5) 0.4873(6) 0.6835(8)
H7 H 0.8992 0.4674 0.6540
H8 H 0.9061 0.4941 0.7240
C8 C 0.7966(5) 0.3951(5) 0.7134(7)
C9 C 0.7300(5) 0.3633(5) 0.7170(5)
C10 C 0.6985(5) 0.3964(4) 0.7167(5)
H9 H 0.7207 0.4395 0.7163
C11 C 0.8350(8) 0.7422(6) 0.6460(7)
H10 H 0.8761 0.7720 0.6533
C12 C 0.7951(11) 0.7606(7) 0.6430(8)
H11 H 0.8075 0.8024 0.6464
C13 C 0.7361(9) 0.7182(9) 0.6350(7)
H12 H 0.7064 0.7303 0.6314
C14 C 0.7185(6) 0.6572(7) 0.6321(8)
H13 H 0.6770 0.6271 0.6281
C15 C 0.7637(6) 0.6410(5) 0.6352(6)
C16 C 0.7461(7) 0.5748(6) 0.6309(7)
H14 H 0.7175 0.5516 0.6650
H15 H 0.7827 0.5708 0.6355
C17 C 0.7165(7) 0.5496(6) 0.5681(8)
H16 H 0.6799 0.5534 0.5627
H17 H 0.7452 0.5713 0.5335
O10 O 0.7770(6) 0.4950(7) 0.5516(12)
C18 C 0.7248(6) 0.4636(5) 0.5546(9)
C19 C 0.7011(7) 0.3990(6) 0.5541(13)
C20 C 0.6352(7) 0.3638(7) 0.5541(12)
H18 H 0.6140 0.3858 0.5542
O1A O 0.5480(3) 0.3671(4) 0.6915(4)
O2A O 0.6272(4) 0.4553(6) 0.7238(5)
N1A N 0.3493(4) 0.3112(6) 0.6303(5)
C1A C 0.3027(6) 0.3208(8) 0.6160(6)
H1A H 0.2644 0.2867 0.6059
C2A C 0.3082(7) 0.3770(9) 0.6152(7)
H2A H 0.2744 0.3817 0.6053
C3A C 0.3626(7) 0.4258(9) 0.6290(7)
H3A H 0.3681 0.4655 0.6274
C4A C 0.4096(6) 0.4167(8) 0.6452(6)
H4A H 0.4474 0.4506 0.6571
C5A C 0.4035(5) 0.3596(7) 0.6447(5)
C6A C 0.4554(5) 0.3475(8) 0.6575(8)
H5A H 0.4403 0.3128 0.6867
H6A H 0.4653 0.3345 0.6177
C7A C 0.5127(6) 0.3973(8) 0.6835(8)
H7A H 0.5326 0.4318 0.6540
H8A H 0.5059 0.4120 0.7240
C8A C 0.6049(5) 0.4015(7) 0.7134(7)
C9A C 0.6367(5) 0.3667(7) 0.7170(5)
C10A C 0.6036(4) 0.3021(6) 0.7167(5)
H9A H 0.5605 0.2812 0.7163
O1B O 0.6329(4) 0.1809(3) 0.6915(4)
O2B O 0.5447(6) 0.1719(4) 0.7238(5)
N1B N 0.6888(6) 0.0381(4) 0.6303(5)
C1B C 0.6792(8) -0.0181(6) 0.6160(6)
H1B H 0.7133 -0.0223 0.6059
C2B C 0.6230(9) -0.0688(6) 0.6152(7)
H2B H 0.6183 -0.1073 0.6053
C3B C 0.5742(9) -0.0632(6) 0.6290(7)
H3B H 0.5345 -0.0974 0.6274
C4B C 0.5833(8) -0.0071(5) 0.6452(6)
H4B H 0.5494 -0.0032 0.6571
C5B C 0.6404(7) 0.0439(5) 0.6447(5)
C6B C 0.6525(8) 0.1079(6) 0.6575(8)
H5B H 0.6872 0.1275 0.6867
H6B H 0.6655 0.1308 0.6177
C7B C 0.6027(8) 0.1154(5) 0.6835(8)
H7B H 0.5682 0.1008 0.6540
H8B H 0.5880 0.0939 0.7240
C8B C 0.5985(7) 0.2034(5) 0.7134(7)
C9B C 0.6333(7) 0.2700(5) 0.7170(5)
C10B C 0.6979(6) 0.3015(5) 0.7167(5)
H9B H 0.7188 0.2793 0.7163
O3A O 0.5123(6) 0.2131(8) 0.5692(6)
N2A N 0.3165(4) 0.1383(6) 0.6395(5)
C11A C 0.2578(6) 0.0928(10) 0.6460(7)
H10A H 0.2280 0.1041 0.6533
C12A C 0.2394(7) 0.0345(13) 0.6430(8)
H11A H 0.1976 0.0051 0.6464
C13A C 0.2818(9) 0.0179(13) 0.6350(7)
H12A H 0.2697 -0.0239 0.6314
C14A C 0.3428(7) 0.0613(9) 0.6321(8)
H13A H 0.3729 0.0499 0.6281
C15A C 0.3590(5) 0.1227(8) 0.6352(6)
C16A C 0.4252(6) 0.1713(9) 0.6309(7)
H14A H 0.4484 0.1659 0.6650
H15A H 0.4292 0.2119 0.6355
C17A C 0.4504(6) 0.1669(9) 0.5681(8)
H16A H 0.4466 0.1265 0.5627
H17A H 0.4287 0.1739 0.5335
O10A O 0.5050(7) 0.2820(9) 0.5516(12)
C18A C 0.5364(5) 0.2612(8) 0.5546(9)
C19A C 0.6010(6) 0.3021(9) 0.5541(13)
C20A C 0.6362(7) 0.2714(10) 0.5541(12)
H18A H 0.6142 0.2282 0.5542
O3B O 0.7869(8) 0.2992(6) 0.5692(6)
N2B N 0.8617(6) 0.1782(5) 0.6395(5)
C11B C 0.9072(10) 0.1650(8) 0.6460(7)
H10B H 0.8959 0.1239 0.6533
C12B C 0.9655(13) 0.2049(11) 0.6430(8)
H11B H 0.9949 0.1925 0.6464
C13B C 0.9821(13) 0.2639(9) 0.6350(7)
H12B H 1.0239 0.2936 0.6314
C14B C 0.9387(9) 0.2815(6) 0.6321(8)
H13B H 0.9501 0.3230 0.6281
C15B C 0.8773(8) 0.2363(6) 0.6352(6)
C16B C 0.8287(9) 0.2539(7) 0.6309(7)
H14B H 0.8341 0.2825 0.6650
H15B H 0.7881 0.2173 0.6355
C17B C 0.8331(9) 0.2835(7) 0.5681(8)
H16B H 0.8735 0.3201 0.5627
H17B H 0.8261 0.2548 0.5335
O10B O 0.7180(9) 0.2230(6) 0.5516(12)
C18B C 0.7388(8) 0.2752(6) 0.5546(9)
C19B C 0.6979(9) 0.2989(7) 0.5541(13)
C20B C 0.7286(10) 0.3648(7) 0.5541(12)
H18B H 0.7718 0.3860 0.5542
Pd1A Pd 0.33418(5) 0.22503(6) 0.63488(7)
O4A O 0.3100(6) 0.2244(8) 0.7234(5)
O5A O 0.3887(5) 0.2184(6) 0.7528(5)
O6A O 0.3289(7) 0.2199(9) 0.8213(7)
O7A O 0.3604(6) 0.2308(8) 0.5448(5)
O8A O 0.2714(8) 0.1703(16) 0.5198(9)
O9A O 0.3434(7) 0.1966(11) 0.4498(6)
N3A N 0.3442(8) 0.2193(11) 0.7694(6)
N4A N 0.3220(7) 0.1982(11) 0.5098(9)
Pd1B Pd 0.77497(6) 0.10915(4) 0.63488(7)
O4B O 0.7756(8) 0.0856(6) 0.7234(5)
O5B O 0.7816(6) 0.1703(4) 0.7528(5)
O6B O 0.7801(9) 0.1090(6) 0.8213(7)
O7B O 0.7692(8) 0.1296(6) 0.5448(5)
O8B O 0.8297(16) 0.1011(14) 0.5198(9)
O9B O 0.8034(11) 0.1468(8) 0.4498(6)
N3B N 0.7807(11) 0.1249(7) 0.7694(6)
N4B N 0.8018(11) 0.1238(8) 0.5098(9)
S1 S 1.0111(9) 0.8489(11) 0.5413(9)
O12 O 0.9858(16) 0.821(3) 0.6099(13)
C24 C 0.978(3) 0.899(3) 0.5453(17)
H20 H 0.9877 0.9232 0.5067
H21 H 0.9341 0.8747 0.5502
H22 H 0.9955 0.9268 0.5811
C25 C 1.0814(16) 0.912(3) 0.5479(14)
H23 H 1.0965 0.9285 0.5062
H24 H 1.0789 0.9420 0.5739
H25 H 1.1092 0.9001 0.5673
loop_
_geom_bond_atom_site_label_1
_geom_bond_atom_site_label_2
_geom_bond_site_symmetry_1
_geom_bond_site_symmetry_2
Pd1 O4 1_555 1_555
O1 C7 1_555 1_555
O2 C8 1_555 1_555
O3 C17 1_555 1_555
O4 N3 1_555 1_555
O5 N3 1_555 1_555
O6 N3 1_555 1_555
O7 Pd1 1_555 1_555
O8 N4 1_555 1_555
O9 N4 1_555 1_555
N1 Pd1 1_555 1_555
N2 Pd1 1_555 1_555
N4 O7 1_555 1_555
C1 N1 1_555 1_555
H1 C1 1_555 1_555
C2 C1 1_555 1_555
H2 C2 1_555 1_555
C3 C2 1_555 1_555
H3 C3 1_555 1_555
C4 C3 1_555 1_555
H4 C4 1_555 1_555
C5 N1 1_555 1_555
C6 C5 1_555 1_555
H5 C6 1_555 1_555
H6 C6 1_555 1_555
C7 C6 1_555 1_555
H7 C7 1_555 1_555
H8 C7 1_555 1_555
C8 O1 1_555 1_555
C9 C8 1_555 1_555
C10 C9 1_555 1_555
H9 C10 1_555 1_555
C11 N2 1_555 1_555
H10 C11 1_555 1_555
C12 C11 1_555 1_555
H11 C12 1_555 1_555
C13 C12 1_555 1_555
H12 C13 1_555 1_555
C14 C13 1_555 1_555
H13 C14 1_555 1_555
C15 N2 1_555 1_555
C16 C15 1_555 1_555
H14 C16 1_555 1_555
H15 C16 1_555 1_555
C17 C16 1_555 1_555
H16 C17 1_555 1_555
H17 C17 1_555 1_555
O10 C18 1_555 1_555
C18 O3 1_555 1_555
C19 C18 1_555 1_555
C20 C19 1_555 1_555
H18 C20 1_555 1_555
S1 O12 1_555 1_555
C24 S1 1_555 1_555
H20 C24 1_555 1_555
H21 C24 1_555 1_555
H22 C24 1_555 1_555
C25 S1 1_555 1_555
H23 C25 1_555 1_555
H24 C25 1_555 1_555
H25 C25 1_555 1_555
O1A C7A 1_555 1_555
O2A C8A 1_555 1_555
N1A C1A 1_555 1_555
C1A H1A 1_555 1_555
C2A C1A 1_555 1_555
H2A C2A 1_555 1_555
C3A C2A 1_555 1_555
H3A C3A 1_555 1_555
C4A C3A 1_555 1_555
H4A C4A 1_555 1_555
C5A N1A 1_555 1_555
C6A C5A 1_555 1_555
H5A C6A 1_555 1_555
H6A C6A 1_555 1_555
C7A C6A 1_555 1_555
H7A C7A 1_555 1_555
H8A C7A 1_555 1_555
C8A O1A 1_555 1_555
C9A C10 1_555 1_555
C10A C9A 1_555 1_555
H9A C10A 1_555 1_555
O1B C7B 1_555 1_555
O2B C8B 1_555 1_555
N1B C1B 1_555 1_555
C1B H1B 1_555 1_555
C2B C1B 1_555 1_555
H2B C2B 1_555 1_555
C3B C2B 1_555 1_555
H3B C3B 1_555 1_555
C4B C3B 1_555 1_555
H4B C4B 1_555 1_555
C5B N1B 1_555 1_555
C6B C5B 1_555 1_555
H5B C6B 1_555 1_555
H6B C6B 1_555 1_555
C7B C6B 1_555 1_555
H7B C7B 1_555 1_555
H8B C7B 1_555 1_555
C8B O1B 1_555 1_555
C9B C10A 1_555 1_555
C10B C9 1_555 1_555
H9B C10B 1_555 1_555
O3A C17A 1_555 1_555
N2A C11A 1_555 1_555
C11A H10A 1_555 1_555
C12A C11A 1_555 1_555
H11A C12A 1_555 1_555
C13A C12A 1_555 1_555
H12A C13A 1_555 1_555
C14A C13A 1_555 1_555
H13A C14A 1_555 1_555
C15A N2A 1_555 1_555
C16A C15A 1_555 1_555
H14A C16A 1_555 1_555
H15A C16A 1_555 1_555
C17A C16A 1_555 1_555
H16A C17A 1_555 1_555
H17A C17A 1_555 1_555
O10A C18A 1_555 1_555
C18A O3A 1_555 1_555
C19A C20 1_555 1_555
C20A C19A 1_555 1_555
H18A C20A 1_555 1_555
O3B C17B 1_555 1_555
N2B C11B 1_555 1_555
C11B H10B 1_555 1_555
C12B C11B 1_555 1_555
H11B C12B 1_555 1_555
C13B C12B 1_555 1_555
H12B C13B 1_555 1_555
C14B C13B 1_555 1_555
H13B C14B 1_555 1_555
C15B N2B 1_555 1_555
C16B C15B 1_555 1_555
H14B C16B 1_555 1_555
H15B C16B 1_555 1_555
C17B C16B 1_555 1_555
H16B C17B 1_555 1_555
H17B C17B 1_555 1_555
O10B C18B 1_555 1_555
C18B O3B 1_555 1_555
C19B C20A 1_555 1_555
C20B C19 1_555 1_555
H18B C20B 1_555 1_555
Pd1A N1A 1_555 1_555
O4A Pd1A 1_555 1_555
O5A N3A 1_555 1_555
O6A N3A 1_555 1_555
O7A Pd1A 1_555 1_555
O8A N4A 1_555 1_555
O9A N4A 1_555 1_555
N3A O4A 1_555 1_555
N4A O7A 1_555 1_555
Pd1B N1B 1_555 1_555
O4B Pd1B 1_555 1_555
O5B N3B 1_555 1_555
O6B N3B 1_555 1_555
O7B Pd1B 1_555 1_555
O8B N4B 1_555 1_555
O9B N4B 1_555 1_555
N3B O4B 1_555 1_555
N4B O7B 1_555 1_555
C4 C5 1_555 1_555
C14 C15 1_555 1_555
C4A C5A 1_555 1_555
C8A C9A 1_555 1_555
C4B C5B 1_555 1_555
C8B C9B 1_555 1_555
C9B C10B 1_555 1_555
N2A Pd1A 1_555 1_555
C14A C15A 1_555 1_555
C18A C19A 1_555 1_555
N2B Pd1B 1_555 1_555
C14B C15B 1_555 1_555
C18B C19B 1_555 1_555
C19B C20B 1_555 1_555

#END
