
#######################################################################
#
#                 Cambridge Crystallographic Data Centre
#                                CCDC 
#
#######################################################################
#
# If this CIF has been generated from an entry in the Cambridge 
# Structural Database, then it will include bibliographic, chemical, 
# crystal, experimental, refinement or atomic coordinate data resulting 
# from the CCDC's data processing and validation procedures.
#
#######################################################################

data_EWICEU
_chemical_formula_moiety         'C60 H54 Cl6 N6 O12 Pd3,6(C1 H4 O1)'
_chemical_name_systematic        
'bis(\m-tris(2-(pyridin-2-yl)ethyl) benzene-1,3,5-tricarboxylate)-hexachloro-tri-palladium(ii) methanol solvate'
_symmetry_cell_setting           rhombohedral
_symmetry_space_group_name_H-M   'R 3 c'
_symmetry_Int_Tables_number      161
_space_group_name_Hall           'R 3 -2"c'
loop_
_symmetry_equiv_pos_site_id
_symmetry_equiv_pos_as_xyz
1 x,y,z
2 -y,x-y,z
3 -x+y,-x,z
4 -y,-x,1/2+z
5 x,x-y,1/2+z
6 -x+y,y,1/2+z
7 2/3+x,1/3+y,1/3+z
8 2/3-y,1/3+x-y,1/3+z
9 2/3-x+y,1/3-x,1/3+z
10 2/3-y,1/3-x,5/6+z
11 2/3+x,1/3+x-y,5/6+z
12 2/3-x+y,1/3+y,5/6+z
13 1/3+x,2/3+y,2/3+z
14 1/3-y,2/3+x-y,2/3+z
15 1/3-x+y,2/3-x,2/3+z
16 1/3-y,2/3-x,1/6+z
17 1/3+x,2/3+x-y,1/6+z
18 1/3-x+y,2/3+y,1/6+z
_cell_length_a                   24.9266(19)
_cell_length_b                   24.9266(19)
_cell_length_c                   19.706(2)
_cell_angle_alpha                90
_cell_angle_beta                 90
_cell_angle_gamma                120
_cell_volume                     10603.6
_exptl_crystal_colour            yellow
_exptl_crystal_description       block
_cell_formula_units_Z            6
loop_
_atom_site_label
_atom_site_type_symbol
_atom_site_fract_x
_atom_site_fract_y
_atom_site_fract_z
Pd1 Pd 0.65548(6) 0.76950(6) 0.91360(7)
Cl1 Cl 0.6699(2) 0.7788(2) 1.0299(3)
Cl2 Cl 0.6271(3) 0.7576(3) 0.8021(3)
O1 O 0.8338(5) 0.9225(6) 0.8272(6)
O2 O 0.8659(6) 1.0226(7) 0.8139(9)
O3 O 0.8776(5) 0.8437(4) 0.9687(6)
O4 O 0.9615(5) 0.8374(5) 0.9901(6)
N1 N 0.6423(7) 0.8417(6) 0.9147(7)
N2 N 0.6721(6) 0.6976(6) 0.9069(7)
C1 C 0.5824(9) 0.8291(9) 0.9174(11)
H1 H 0.5502 0.7872 0.9208
C2 C 0.5668(9) 0.8751(11) 0.9153(10)
H2 H 0.5252 0.8658 0.9212
C3 C 0.6117(11) 0.9320(11) 0.9050(9)
H3 H 0.6013 0.9636 0.8996
C4 C 0.6744(10) 0.9485(8) 0.9014(9)
H4 H 0.7063 0.9901 0.8947
C5 C 0.6871(8) 0.8990(8) 0.9085(9)
C6 C 0.7511(8) 0.9133(8) 0.9038(8)
H5 H 0.7566 0.8835 0.9321
H6 H 0.7785 0.9553 0.9223
C7 C 0.7703(7) 0.9105(9) 0.8325(10)
H7 H 0.7418 0.8690 0.8135
H8 H 0.7662 0.9414 0.8047
C8 C 0.8764(8) 0.9813(9) 0.8189(10)
C9 C 0.9382(8) 0.9886(9) 0.8180(10)
C10 C 0.9899(9) 1.0490(9) 0.8175(9)
H9 H 0.9825 1.0829 0.8168
C11 C 0.6265(8) 0.6418(8) 0.8905(8)
H10 H 0.5875 0.6379 0.8796
C12 C 0.6308(9) 0.5888(8) 0.8880(8)
H11 H 0.5962 0.5494 0.8779
C13 C 0.6888(9) 0.5967(8) 0.9011(9)
H12 H 0.6951 0.5622 0.8984
C14 C 0.7358(8) 0.6522(7) 0.9174(8)
H13 H 0.7751 0.6568 0.9275
C15 C 0.7280(7) 0.7034(7) 0.9198(8)
C16 C 0.7808(7) 0.7694(7) 0.9350(9)
H14 H 0.7893 0.7943 0.8931
H15 H 0.7659 0.7877 0.9696
C17 C 0.8403(7) 0.7764(7) 0.9592(10)
H16 H 0.8349 0.7539 1.0024
H17 H 0.8589 0.7616 0.9250
C18 C 0.9357(7) 0.8659(7) 0.9829(8)
C19 C 0.9702(7) 0.9361(7) 0.9881(8)
C20 C 0.9351(7) 0.9659(7) 0.9890(7)
H18 H 0.8912 0.9425 0.9901
O1A O 1.0775(6) 0.9113(8) 0.8272(6)
O2A O 0.9774(7) 0.8433(9) 0.8139(9)
N1A N 1.1583(6) 0.8006(9) 0.9147(7)
C1A C 1.1709(9) 0.7533(13) 0.9174(11)
H1A H 1.2128 0.7630 0.9208
C2A C 1.1249(11) 0.6917(14) 0.9153(10)
H2A H 1.1342 0.6594 0.9212
C3A C 1.0680(11) 0.6797(16) 0.9050(9)
H3A H 1.0364 0.6377 0.8996
C4A C 1.0515(8) 0.7259(13) 0.9014(9)
H4A H 1.0099 0.7162 0.8947
C5A C 1.1010(8) 0.7881(11) 0.9085(9)
C6A C 1.0867(8) 0.8378(11) 0.9038(8)
H5A H 1.1165 0.8731 0.9321
H6A H 1.0447 0.8232 0.9223
C7A C 1.0895(9) 0.8598(11) 0.8325(10)
H7A H 1.1310 0.8728 0.8135
H8A H 1.0586 0.8248 0.8047
C8A C 1.0187(9) 0.8951(12) 0.8189(10)
C9A C 1.0114(9) 0.9496(12) 0.8180(10)
C10A C 0.9510(9) 0.9409(13) 0.8175(9)
H9A H 0.9171 0.8996 0.8168
O1B O 1.0887(8) 1.1662(5) 0.8272(6)
O2B O 1.1567(9) 1.1341(6) 0.8139(9)
N1B N 1.1994(9) 1.3577(7) 0.9147(7)
C1B C 1.2467(13) 1.4176(9) 0.9174(11)
H1B H 1.2370 1.4498 0.9208
C2B C 1.3083(14) 1.4332(9) 0.9153(10)
H2B H 1.3406 1.4748 0.9212
C3B C 1.3203(16) 1.3883(11) 0.9050(9)
H3B H 1.3623 1.3987 0.8996
C4B C 1.2741(13) 1.3256(10) 0.9014(9)
H4B H 1.2838 1.2937 0.8947
C5B C 1.2119(11) 1.3129(8) 0.9085(9)
C6B C 1.1622(11) 1.2489(8) 0.9038(8)
H5B H 1.1269 1.2434 0.9321
H6B H 1.1768 1.2215 0.9223
C7B C 1.1402(11) 1.2297(7) 0.8325(10)
H7B H 1.1272 1.2582 0.8135
H8B H 1.1752 1.2338 0.8047
C8B C 1.1049(12) 1.1236(8) 0.8189(10)
C9B C 1.0504(12) 1.0618(8) 0.8180(10)
C10B C 1.0591(13) 1.0101(9) 0.8175(9)
H9B H 1.1004 1.0175 0.8168
O3A O 1.1563(4) 1.0339(6) 0.9687(6)
O4A O 1.1626(5) 1.1241(7) 0.9901(6)
N2A N 1.3024(6) 0.9745(8) 0.9069(7)
C11A C 1.3582(8) 0.9847(11) 0.8905(8)
H10A H 1.3621 0.9496 0.8796
C12A C 1.4112(8) 1.0420(12) 0.8880(8)
H11A H 1.4506 1.0468 0.8779
C13A C 1.4033(8) 1.0921(12) 0.9011(9)
H12A H 1.4378 1.1329 0.8984
C14A C 1.3478(7) 1.0836(11) 0.9174(8)
H13A H 1.3432 1.1183 0.9275
C15A C 1.2966(7) 1.0246(10) 0.9198(8)
C16A C 1.2306(7) 1.0114(10) 0.9350(9)
H14A H 1.2057 0.9950 0.8931
H15A H 1.2123 0.9782 0.9696
C17A C 1.2236(7) 1.0639(10) 0.9592(10)
H16A H 1.2461 1.0810 1.0024
H17A H 1.2384 1.0973 0.9250
C18A C 1.1341(7) 1.0698(10) 0.9829(8)
C19A C 1.0639(7) 1.0341(10) 0.9881(8)
C20A C 1.0341(7) 0.9692(10) 0.9890(7)
H18A H 1.0575 0.9487 0.9901
O3B O 0.9661(6) 1.1224(5) 0.9687(6)
O4B O 0.8759(7) 1.0385(5) 0.9901(6)
N2B N 1.0255(8) 1.3279(6) 0.9069(7)
C11B C 1.0153(11) 1.3735(8) 0.8905(8)
H10B H 1.0504 1.4125 0.8796
C12B C 0.9580(12) 1.3692(9) 0.8880(8)
H11B H 0.9532 1.4038 0.8779
C13B C 0.9079(12) 1.3112(9) 0.9011(9)
H12B H 0.8671 1.3049 0.8984
C14B C 0.9164(11) 1.2642(8) 0.9174(8)
H13B H 0.8817 1.2249 0.9275
C15B C 0.9754(10) 1.2720(7) 0.9198(8)
C16B C 0.9886(10) 1.2192(7) 0.9350(9)
H14B H 1.0050 1.2107 0.8931
H15B H 1.0218 1.2341 0.9696
C17B C 0.9361(10) 1.1597(7) 0.9592(10)
H16B H 0.9190 1.1651 1.0024
H17B H 0.9027 1.1411 0.9250
C18B C 0.9302(10) 1.0643(7) 0.9829(8)
C19B C 0.9659(10) 1.0298(7) 0.9881(8)
C20B C 1.0308(10) 1.0649(7) 0.9890(7)
H18B H 1.0513 1.1088 0.9901
Pd1A Pd 1.23050(6) 0.88598(8) 0.91360(7)
Cl1A Cl 1.2212(2) 0.8911(3) 1.0299(3)
Cl2A Cl 1.2424(3) 0.8695(4) 0.8021(3)
Pd1B Pd 1.11402(8) 1.34452(6) 0.91360(7)
Cl1B Cl 1.1089(3) 1.3301(2) 1.0299(3)
Cl2B Cl 1.1305(4) 1.3729(3) 0.8021(3)
loop_
_geom_bond_atom_site_label_1
_geom_bond_atom_site_label_2
_geom_bond_site_symmetry_1
_geom_bond_site_symmetry_2
Pd1 Cl1 1_555 1_555
Cl2 Pd1 1_555 1_555
O1 C7 1_555 1_555
O2 C8 1_555 1_555
O3 C17 1_555 1_555
O4 C18 1_555 1_555
N1 Pd1 1_555 1_555
N2 Pd1 1_555 1_555
C1 N1 1_555 1_555
H1 C1 1_555 1_555
C2 C1 1_555 1_555
H2 C2 1_555 1_555
C3 C2 1_555 1_555
H3 C3 1_555 1_555
C4 C3 1_555 1_555
H4 C4 1_555 1_555
C5 N1 1_555 1_555
C6 C5 1_555 1_555
H5 C6 1_555 1_555
H6 C6 1_555 1_555
C7 C6 1_555 1_555
H7 C7 1_555 1_555
H8 C7 1_555 1_555
C8 O1 1_555 1_555
C9 C8 1_555 1_555
C10 C9 1_555 1_555
H9 C10 1_555 1_555
C11 N2 1_555 1_555
H10 C11 1_555 1_555
C12 C11 1_555 1_555
H11 C12 1_555 1_555
C13 C12 1_555 1_555
H12 C13 1_555 1_555
C14 C13 1_555 1_555
H13 C14 1_555 1_555
C15 N2 1_555 1_555
C16 C15 1_555 1_555
H14 C16 1_555 1_555
H15 C16 1_555 1_555
C17 C16 1_555 1_555
H16 C17 1_555 1_555
H17 C17 1_555 1_555
C18 O3 1_555 1_555
C19 C18 1_555 1_555
C20 C19 1_555 1_555
H18 C20 1_555 1_555
O1A C7A 1_555 1_555
O2A C8A 1_555 1_555
N1A C1A 1_555 1_555
C1A H1A 1_555 1_555
C2A C1A 1_555 1_555
H2A C2A 1_555 1_555
C3A C2A 1_555 1_555
H3A C3A 1_555 1_555
C4A C3A 1_555 1_555
H4A C4A 1_555 1_555
C5A N1A 1_555 1_555
C6A C5A 1_555 1_555
H5A C6A 1_555 1_555
H6A C6A 1_555 1_555
C7A C6A 1_555 1_555
H7A C7A 1_555 1_555
H8A C7A 1_555 1_555
C8A O1A 1_555 1_555
C9A C8A 1_555 1_555
C10A C9 1_555 1_555
H9A C10A 1_555 1_555
O1B C7B 1_555 1_555
O2B C8B 1_555 1_555
N1B C1B 1_555 1_555
C1B H1B 1_555 1_555
C2B C1B 1_555 1_555
H2B C2B 1_555 1_555
C3B C2B 1_555 1_555
H3B C3B 1_555 1_555
C4B C3B 1_555 1_555
H4B C4B 1_555 1_555
C5B N1B 1_555 1_555
C6B C5B 1_555 1_555
H5B C6B 1_555 1_555
H6B C6B 1_555 1_555
C7B C6B 1_555 1_555
H7B C7B 1_555 1_555
H8B C7B 1_555 1_555
C8B O1B 1_555 1_555
C9B C10 1_555 1_555
C10B C9A 1_555 1_555
H9B C10B 1_555 1_555
O3A C17A 1_555 1_555
O4A C18A 1_555 1_555
N2A C11A 1_555 1_555
C11A H10A 1_555 1_555
C12A C11A 1_555 1_555
H11A C12A 1_555 1_555
C13A C12A 1_555 1_555
H12A C13A 1_555 1_555
C14A C13A 1_555 1_555
H13A C14A 1_555 1_555
C15A N2A 1_555 1_555
C16A C15A 1_555 1_555
H14A C16A 1_555 1_555
H15A C16A 1_555 1_555
C17A C16A 1_555 1_555
H16A C17A 1_555 1_555
H17A C17A 1_555 1_555
C18A O3A 1_555 1_555
C19A C18A 1_555 1_555
C20A C19 1_555 1_555
H18A C20A 1_555 1_555
O3B C17B 1_555 1_555
O4B C18B 1_555 1_555
N2B C11B 1_555 1_555
C11B H10B 1_555 1_555
C12B C11B 1_555 1_555
H11B C12B 1_555 1_555
C13B C12B 1_555 1_555
H12B C13B 1_555 1_555
C14B C13B 1_555 1_555
H13B C14B 1_555 1_555
C15B N2B 1_555 1_555
C16B C15B 1_555 1_555
H14B C16B 1_555 1_555
H15B C16B 1_555 1_555
C17B C16B 1_555 1_555
H16B C17B 1_555 1_555
H17B C17B 1_555 1_555
C18B O3B 1_555 1_555
C19B C20 1_555 1_555
C20B C19A 1_555 1_555
H18B C20B 1_555 1_555
Pd1A N1A 1_555 1_555
Cl1A Pd1A 1_555 1_555
Cl2A Pd1A 1_555 1_555
Pd1B N1B 1_555 1_555
Cl1B Pd1B 1_555 1_555
Cl2B Pd1B 1_555 1_555
C4 C5 1_555 1_555
C14 C15 1_555 1_555
C4A C5A 1_555 1_555
C9A C10A 1_555 1_555
C4B C5B 1_555 1_555
C8B C9B 1_555 1_555
C9B C10B 1_555 1_555
N2A Pd1A 1_555 1_555
C14A C15A 1_555 1_555
C19A C20A 1_555 1_555
N2B Pd1B 1_555 1_555
C14B C15B 1_555 1_555
C18B C19B 1_555 1_555
C19B C20B 1_555 1_555

#END
