
#######################################################################
#
#                 Cambridge Crystallographic Data Centre
#                                CCDC 
#
#######################################################################
#
# If this CIF has been generated from an entry in the Cambridge 
# Structural Database, then it will include bibliographic, chemical, 
# crystal, experimental, refinement or atomic coordinate data resulting 
# from the CCDC's data processing and validation procedures.
#
#######################################################################

data_EZASAA
_chemical_formula_moiety         'C28 H40 Ag2 N4 O2 Si4 2+,2(Cl1 O4 1-)'
_chemical_name_systematic        
'bis(\m~2~-1,3-bis(3-pyridyl)-1,1,3,3-tetramethyldisiloxane)-di-silver(i) diperchlorate'
_symmetry_cell_setting           monoclinic
_symmetry_space_group_name_H-M   'P 21/n'
_symmetry_Int_Tables_number      14
_space_group_name_Hall           '-P 2yn'
loop_
_symmetry_equiv_pos_site_id
_symmetry_equiv_pos_as_xyz
1 x,y,z
2 1/2-x,1/2+y,1/2-z
3 -x,-y,-z
4 1/2+x,1/2-y,1/2+z
_cell_length_a                   8.6892(3)
_cell_length_b                   13.2932(5)
_cell_length_c                   17.3080(8)
_cell_angle_alpha                90
_cell_angle_beta                 99.442(3)
_cell_angle_gamma                90
_cell_volume                     1972.12
_cell_formula_units_Z            2
loop_
_atom_site_label
_atom_site_type_symbol
_atom_site_fract_x
_atom_site_fract_y
_atom_site_fract_z
Cl1 Cl 0.53606(12) 0.97145(8) 0.21037(6)
O1 O 0.6780(4) 1.0182(3) 0.2399(2)
O2 O 0.4096(5) 1.0409(3) 0.1971(3)
O3 O 0.5457(5) 0.9299(4) 0.1376(2)
O4 O 0.5031(5) 0.8990(4) 0.2616(3)
Ag1 Ag 0.62973(4) 0.91471(2) -0.01352(2)
Si1 Si 0.27540(11) 0.57996(7) 0.09334(6)
Si2 Si 0.04000(11) 0.74492(7) 0.12594(6)
C1 C 0.4380(4) 0.7302(3) 0.0205(2)
H1 H 0.4718 0.7505 0.0719
N1 N 0.4826(3) 0.7856(2) -0.03687(18)
O5 O 0.1171(3) 0.63797(17) 0.10734(14)
C2 C 0.1665(4) 0.9107(3) 0.0503(2)
H2 H 0.2112 0.9292 0.1008
C3 C 0.0677(4) 0.8289(2) 0.0420(2)
C4 C 0.3455(4) 0.6451(3) 0.00865(19)
C5 C 0.2988(5) 0.6172(3) -0.0690(2)
H3 H 0.2374 0.5602 -0.0808
C6 C 0.3422(5) 0.6729(4) -0.1285(2)
H4 H 0.3105 0.6542 -0.1804
C7 C 0.4325(5) 0.7562(3) -0.1104(2)
H5 H 0.4604 0.7942 -0.1511
C8 C 0.0011(5) 0.8052(3) -0.0346(2)
H6 H -0.0674 0.7512 -0.0441
C9 C 0.4262(5) 0.5882(3) 0.1812(2)
H7 H 0.4533 0.6574 0.1917
H8 H 0.5170 0.5515 0.1725
H9 H 0.3868 0.5599 0.2251
C10 C -0.1692(4) 0.7237(3) 0.1272(2)
H10 H -0.2183 0.6997 0.0768
H11 H -0.2170 0.7857 0.1389
H12 H -0.1811 0.6746 0.1664
C11 C 0.1382(6) 0.7985(4) 0.2191(2)
H13 H 0.1405 0.7495 0.2600
H14 H 0.0824 0.8570 0.2317
H15 H 0.2430 0.8171 0.2143
C12 C 0.2218(5) 0.4485(3) 0.0676(3)
H16 H 0.1825 0.4171 0.1104
H17 H 0.3121 0.4126 0.0573
H18 H 0.1428 0.4473 0.0218
N2 N 0.2030(4) 0.9658(2) -0.00949(19)
C13 C 0.0361(6) 0.8616(3) -0.0962(2)
H19 H -0.0087 0.8461 -0.1474
C14 C 0.1375(5) 0.9404(3) -0.0813(3)
H20 H 0.1613 0.9777 -0.1233
Ag1B Ag 0.37027(4) 1.08529(2) 0.01352(2)
Si1B Si 0.72460(11) 1.42004(7) -0.09334(6)
Si2B Si 0.96000(11) 1.25508(7) -0.12594(6)
C1B C 0.5620(4) 1.2698(3) -0.0205(2)
H1B H 0.5282 1.2495 -0.0719
N1B N 0.5174(3) 1.2144(2) 0.03687(18)
O5B O 0.8829(3) 1.36203(17) -0.10734(14)
C2B C 0.8335(4) 1.0893(3) -0.0503(2)
H2B H 0.7888 1.0708 -0.1008
C3B C 0.9323(4) 1.1711(2) -0.0420(2)
C4B C 0.6545(4) 1.3549(3) -0.00865(19)
C5B C 0.7012(5) 1.3828(3) 0.0690(2)
H3B H 0.7626 1.4398 0.0808
C6B C 0.6578(5) 1.3271(4) 0.1285(2)
H4B H 0.6895 1.3458 0.1804
C7B C 0.5675(5) 1.2438(3) 0.1104(2)
H5B H 0.5396 1.2058 0.1511
C8B C 0.9989(5) 1.1948(3) 0.0346(2)
H6B H 1.0674 1.2488 0.0441
C9B C 0.5738(5) 1.4118(3) -0.1812(2)
H7B H 0.5467 1.3426 -0.1917
H8B H 0.4830 1.4485 -0.1725
H9B H 0.6132 1.4401 -0.2251
C10B C 1.1692(4) 1.2763(3) -0.1272(2)
H10B H 1.2183 1.3003 -0.0768
H11B H 1.2170 1.2143 -0.1389
H12B H 1.1811 1.3254 -0.1664
C11B C 0.8618(6) 1.2015(4) -0.2191(2)
H13B H 0.8595 1.2505 -0.2600
H14B H 0.9176 1.1430 -0.2317
H15B H 0.7570 1.1829 -0.2143
C12B C 0.7782(5) 1.5515(3) -0.0676(3)
H16B H 0.8175 1.5829 -0.1104
H17B H 0.6879 1.5874 -0.0573
H18B H 0.8572 1.5527 -0.0218
N2B N 0.7970(4) 1.0342(2) 0.00949(19)
C13B C 0.9639(6) 1.1384(3) 0.0962(2)
H19B H 1.0087 1.1539 0.1474
C14B C 0.8625(5) 1.0596(3) 0.0813(3)
H20B H 0.8387 1.0223 0.1233
loop_
_geom_bond_atom_site_label_1
_geom_bond_atom_site_label_2
_geom_bond_site_symmetry_1
_geom_bond_site_symmetry_2
Cl1 O1 1_555 1_555
O2 Cl1 1_555 1_555
O3 Cl1 1_555 1_555
O4 Cl1 1_555 1_555
Ag1 N1 1_555 1_555
Si1 O5 1_555 1_555
Si2 O5 1_555 1_555
C1 H1 1_555 1_555
N1 C1 1_555 1_555
C2 H2 1_555 1_555
C3 Si2 1_555 1_555
C4 Si1 1_555 1_555
C5 C4 1_555 1_555
H3 C5 1_555 1_555
C6 C5 1_555 1_555
H4 C6 1_555 1_555
C7 N1 1_555 1_555
H5 C7 1_555 1_555
C8 C3 1_555 1_555
H6 C8 1_555 1_555
C9 Si1 1_555 1_555
H7 C9 1_555 1_555
H8 C9 1_555 1_555
H9 C9 1_555 1_555
C10 Si2 1_555 1_555
H10 C10 1_555 1_555
H11 C10 1_555 1_555
H12 C10 1_555 1_555
C11 Si2 1_555 1_555
H13 C11 1_555 1_555
H14 C11 1_555 1_555
H15 C11 1_555 1_555
C12 Si1 1_555 1_555
H16 C12 1_555 1_555
H17 C12 1_555 1_555
H18 C12 1_555 1_555
N2 C2 1_555 1_555
C13 C8 1_555 1_555
H19 C13 1_555 1_555
C14 N2 1_555 1_555
H20 C14 1_555 1_555
Ag1B N2 1_555 1_555
Si1B O5B 1_555 1_555
Si2B O5B 1_555 1_555
C1B H1B 1_555 1_555
N1B Ag1B 1_555 1_555
C2B H2B 1_555 1_555
C3B Si2B 1_555 1_555
C4B Si1B 1_555 1_555
C5B C4B 1_555 1_555
H3B C5B 1_555 1_555
C6B C5B 1_555 1_555
H4B C6B 1_555 1_555
C7B N1B 1_555 1_555
H5B C7B 1_555 1_555
C8B C3B 1_555 1_555
H6B C8B 1_555 1_555
C9B Si1B 1_555 1_555
H7B C9B 1_555 1_555
H8B C9B 1_555 1_555
H9B C9B 1_555 1_555
C10B Si2B 1_555 1_555
H10B C10B 1_555 1_555
H11B C10B 1_555 1_555
H12B C10B 1_555 1_555
C11B Si2B 1_555 1_555
H13B C11B 1_555 1_555
H14B C11B 1_555 1_555
H15B C11B 1_555 1_555
C12B Si1B 1_555 1_555
H16B C12B 1_555 1_555
H17B C12B 1_555 1_555
H18B C12B 1_555 1_555
N2B Ag1 1_555 1_555
C13B C8B 1_555 1_555
H19B C13B 1_555 1_555
C14B N2B 1_555 1_555
H20B C14B 1_555 1_555
C1 C4 1_555 1_555
C2 C3 1_555 1_555
C6 C7 1_555 1_555
C13 C14 1_555 1_555
C1B N1B 1_555 1_555
C1B C4B 1_555 1_555
C2B C3B 1_555 1_555
C2B N2B 1_555 1_555
C6B C7B 1_555 1_555
C13B C14B 1_555 1_555

#END
