
#######################################################################
#
#                 Cambridge Crystallographic Data Centre
#                                CCDC 
#
#######################################################################
#
# If this CIF has been generated from an entry in the Cambridge 
# Structural Database, then it will include bibliographic, chemical, 
# crystal, experimental, refinement or atomic coordinate data resulting 
# from the CCDC's data processing and validation procedures.
#
#######################################################################

data_EZASEE
_chemical_formula_moiety         'C28 H40 Ag2 N4 O2 Si4 2+,2(C1 F3 O3 S1 1-)'
_chemical_name_systematic        
'bis(\m~2~-1,3-bis(3-pyridyl)-1,1,3,3-tetramethyldisiloxane)-di-silver(i) bis(trifluoromethanesulfonate)'
_symmetry_cell_setting           triclinic
_symmetry_space_group_name_H-M   'P -1'
_symmetry_Int_Tables_number      2
_space_group_name_Hall           '-P 1'
loop_
_symmetry_equiv_pos_site_id
_symmetry_equiv_pos_as_xyz
1 x,y,z
2 -x,-y,-z
_cell_length_a                   8.6771(5)
_cell_length_b                   9.4056(6)
_cell_length_c                   14.6189(8)
_cell_angle_alpha                79.920(4)
_cell_angle_beta                 76.931(4)
_cell_angle_gamma                73.180(4)
_cell_volume                     1104.76
_cell_formula_units_Z            1
loop_
_atom_site_label
_atom_site_type_symbol
_atom_site_fract_x
_atom_site_fract_y
_atom_site_fract_z
N1 N 0.3285(3) 0.9258(4) 0.53247(19)
Ag1 Ag 0.15795(3) 1.06963(4) 0.448160(19)
Si1 Si -0.15925(10) 1.27062(11) 0.11511(6)
Si2 Si -0.40923(10) 1.07943(12) 0.20049(6)
O1 O -0.2536(3) 1.1391(3) 0.13959(15)
N2 N 0.0014(3) 1.2377(4) 0.36650(19)
C1 C -0.0305(3) 1.2118(4) 0.2855(2)
H1 H 0.0159 1.1169 0.2664
C2 C -0.1267(3) 1.3161(4) 0.2295(2)
C3 C -0.1937(5) 1.4551(5) 0.2601(3)
H2 H -0.2607 1.5297 0.2251
C4 C -0.1626(6) 1.4846(5) 0.3417(3)
H3 H -0.2083 1.5785 0.3624
C5 C -0.0642(5) 1.3748(5) 0.3922(3)
H4 H -0.0416 1.3962 0.4468
C6 C 0.0391(4) 1.1973(6) 0.0405(3)
H5 H 0.0220 1.1793 -0.0186
H6 H 0.1029 1.2688 0.0291
H7 H 0.0963 1.1053 0.0720
C7 C -0.3562(5) 0.8766(5) 0.1997(3)
H8 H -0.2551 0.8319 0.2220
H9 H -0.4417 0.8372 0.2403
H10 H -0.3442 0.8543 0.1365
C8 C -0.5934(4) 1.1731(6) 0.1490(3)
H11 H -0.5738 1.1527 0.0846
H12 H -0.6842 1.1365 0.1848
H13 H -0.6183 1.2791 0.1505
C9 C -0.4370(3) 1.1265(4) 0.3234(2)
C10 C -0.5456(4) 1.2549(4) 0.3574(3)
H14 H -0.6201 1.3170 0.3214
C11 C -0.5428(5) 1.2897(5) 0.4438(3)
H15 H -0.6155 1.3757 0.4663
C12 C 0.4346(5) 0.8004(5) 0.5029(3)
H16 H 0.4342 0.7745 0.4444
C13 C 0.3337(3) 0.9588(4) 0.6170(2)
H17 H 0.2615 1.0467 0.6372
C14 C -0.2824(6) 1.4407(5) 0.0550(4)
H18 H -0.3805 1.4816 0.0981
H19 H -0.2198 1.5133 0.0344
H20 H -0.3111 1.4155 0.0013
N1A N -0.3285(3) 1.0742(4) 0.46753(19)
Ag1A Ag -0.15795(3) 0.93037(4) 0.551840(19)
Si1A Si 0.15925(10) 0.72938(11) 0.88489(6)
Si2A Si 0.40923(10) 0.92057(12) 0.79951(6)
O1A O 0.2536(3) 0.8609(3) 0.86041(15)
N2A N -0.0014(3) 0.7623(4) 0.63350(19)
C1A C 0.0305(3) 0.7882(4) 0.7145(2)
H1A H -0.0159 0.8831 0.7336
C2A C 0.1267(3) 0.6839(4) 0.7705(2)
C3A C 0.1937(5) 0.5449(5) 0.7399(3)
H2A H 0.2607 0.4703 0.7749
C4A C 0.1626(6) 0.5154(5) 0.6583(3)
H3A H 0.2083 0.4215 0.6376
C5A C 0.0642(5) 0.6252(5) 0.6078(3)
H4A H 0.0416 0.6038 0.5532
C6A C -0.0391(4) 0.8027(6) 0.9595(3)
H5A H -0.0220 0.8207 1.0186
H6A H -0.1029 0.7312 0.9709
H7A H -0.0963 0.8947 0.9280
C7A C 0.3562(5) 1.1234(5) 0.8003(3)
H8A H 0.2551 1.1681 0.7780
H9A H 0.4417 1.1628 0.7597
H10A H 0.3442 1.1457 0.8635
C8A C 0.5934(4) 0.8269(6) 0.8510(3)
H11A H 0.5738 0.8473 0.9154
H12A H 0.6842 0.8635 0.8152
H13A H 0.6183 0.7209 0.8495
C9A C 0.4370(3) 0.8735(4) 0.6766(2)
C10A C 0.5456(4) 0.7451(4) 0.6426(3)
H14A H 0.6201 0.6830 0.6786
C11A C 0.5428(5) 0.7103(5) 0.5562(3)
H15A H 0.6155 0.6243 0.5337
C12A C -0.4346(5) 1.1996(5) 0.4971(3)
H16A H -0.4342 1.2255 0.5556
C13A C -0.3337(3) 1.0412(4) 0.3830(2)
H17A H -0.2615 0.9533 0.3628
C14A C 0.2824(6) 0.5593(5) 0.9450(4)
H18A H 0.3805 0.5184 0.9019
H19A H 0.2198 0.4867 0.9656
H20A H 0.3111 0.5845 0.9987
S1 S -0.17067(12) 1.25677(13) 0.66811(7)
O2 O -0.2693(6) 1.3858(4) 0.6292(3)
F1 F -0.1534(5) 1.4041(5) 0.7975(2)
F2 F -0.3330(5) 1.2954(6) 0.8351(3)
F3 F -0.0903(7) 1.1743(6) 0.8290(3)
O3 O -0.0050(4) 1.2362(5) 0.6305(3)
O4 O -0.2267(4) 1.1247(4) 0.6769(2)
C15 C -0.1925(7) 1.2838(7) 0.7883(4)
loop_
_geom_bond_atom_site_label_1
_geom_bond_atom_site_label_2
_geom_bond_site_symmetry_1
_geom_bond_site_symmetry_2
N1 Ag1 1_555 1_555
Ag1 N2 1_555 1_555
Si1 O1 1_555 1_555
Si2 O1 1_555 1_555
N2 C1 1_555 1_555
C1 H1 1_555 1_555
C2 Si1 1_555 1_555
C3 C2 1_555 1_555
H2 C3 1_555 1_555
C4 C3 1_555 1_555
H3 C4 1_555 1_555
C5 N2 1_555 1_555
H4 C5 1_555 1_555
C6 Si1 1_555 1_555
H5 C6 1_555 1_555
H6 C6 1_555 1_555
H7 C6 1_555 1_555
C7 Si2 1_555 1_555
H8 C7 1_555 1_555
H9 C7 1_555 1_555
H10 C7 1_555 1_555
C8 Si2 1_555 1_555
H11 C8 1_555 1_555
H12 C8 1_555 1_555
H13 C8 1_555 1_555
C9 Si2 1_555 1_555
C10 C9 1_555 1_555
H14 C10 1_555 1_555
C11 C10 1_555 1_555
H15 C11 1_555 1_555
C12 N1 1_555 1_555
H16 C12 1_555 1_555
C13 N1 1_555 1_555
H17 C13 1_555 1_555
C14 Si1 1_555 1_555
H18 C14 1_555 1_555
H19 C14 1_555 1_555
H20 C14 1_555 1_555
S1 O2 1_555 1_555
F1 C15 1_555 1_555
F2 C15 1_555 1_555
F3 C15 1_555 1_555
O3 S1 1_555 1_555
O4 S1 1_555 1_555
C15 S1 1_555 1_555
N1A Ag1A 1_555 1_555
Ag1A N2A 1_555 1_555
Si1A O1A 1_555 1_555
Si2A O1A 1_555 1_555
N2A C1A 1_555 1_555
C1A H1A 1_555 1_555
C2A Si1A 1_555 1_555
C3A C2A 1_555 1_555
H2A C3A 1_555 1_555
C4A C3A 1_555 1_555
H3A C4A 1_555 1_555
C5A N2A 1_555 1_555
H4A C5A 1_555 1_555
C6A Si1A 1_555 1_555
H5A C6A 1_555 1_555
H6A C6A 1_555 1_555
H7A C6A 1_555 1_555
C7A Si2A 1_555 1_555
H8A C7A 1_555 1_555
H9A C7A 1_555 1_555
H10A C7A 1_555 1_555
C8A Si2A 1_555 1_555
H11A C8A 1_555 1_555
H12A C8A 1_555 1_555
H13A C8A 1_555 1_555
C9A C13 1_555 1_555
C10A C9A 1_555 1_555
H14A C10A 1_555 1_555
C11A C12 1_555 1_555
H15A C11A 1_555 1_555
C12A C11 1_555 1_555
H16A C12A 1_555 1_555
C13A C9 1_555 1_555
H17A C13A 1_555 1_555
C14A Si1A 1_555 1_555
H18A C14A 1_555 1_555
H19A C14A 1_555 1_555
H20A C14A 1_555 1_555
C1 C2 1_555 1_555
C4 C5 1_555 1_555
N1A C12A 1_555 1_555
N1A C13A 1_555 1_555
Si2A C9A 1_555 1_555
C1A C2A 1_555 1_555
C4A C5A 1_555 1_555
C10A C11A 1_555 1_555

#END
