
#######################################################################
#
#                 Cambridge Crystallographic Data Centre
#                                CCDC 
#
#######################################################################
#
# If this CIF has been generated from an entry in the Cambridge 
# Structural Database, then it will include bibliographic, chemical, 
# crystal, experimental, refinement or atomic coordinate data resulting 
# from the CCDC's data processing and validation procedures.
#
#######################################################################

data_EZEVIQ
_chemical_formula_moiety         
'C112 H92 B4 Br4 Co5 Fe4 N44,16(C3 H6 O1),4(D2 O1)'
_chemical_name_systematic        
"dodecakis(\m-cyano)-tetrakis(hydrogen tripyrazolylborate)-bis( N,N'-bis(pyridin-2-ylmethyl)-1,1'-binaphthalene-2,2'-diamine)-tetrabromo-penta-cobalt-tetra-iron acetone solvate dideuterium oxide"
_symmetry_cell_setting           orthorhombic
_symmetry_space_group_name_H-M   'P 21 21 21'
_symmetry_Int_Tables_number      19
_space_group_name_Hall           'P 2ac 2ab'
loop_
_symmetry_equiv_pos_site_id
_symmetry_equiv_pos_as_xyz
1 x,y,z
2 1/2-x,-y,1/2+z
3 1/2+x,1/2-y,-z
4 -x,1/2+y,1/2-z
_cell_length_a                   21.432(4)
_cell_length_b                   24.169(4)
_cell_length_c                   35.472(6)
_cell_angle_alpha                90
_cell_angle_beta                 90
_cell_angle_gamma                90
_cell_volume                     18374.1
_exptl_crystal_colour            green
_exptl_crystal_description       block
_cell_formula_units_Z            4
loop_
_atom_site_label
_atom_site_type_symbol
_atom_site_fract_x
_atom_site_fract_y
_atom_site_fract_z
Br1 Br 0.68638(3) 0.64170(3) 0.414755(18)
Br2 Br 0.51856(4) 0.48913(3) 0.673983(18)
Br3 Br 0.3293(4) 0.3358(3) 0.3966(2)
Br4 Br 0.22279(8) 0.44724(8) 0.44546(4)
Co1 Co 0.31922(4) 0.66447(3) 0.51286(2)
Co2 Co 0.61884(3) 0.33974(3) 0.45431(2)
Co3 Co 0.61294(3) 0.62041(3) 0.46401(2)
Co4 Co 0.53619(3) 0.49503(3) 0.60739(2)
Co5 Co 0.32895(4) 0.41331(3) 0.43851(2)
Fe1 Fe 0.41216(4) 0.59288(3) 0.39656(2)
Fe2 Fe 0.72669(4) 0.47274(3) 0.53526(2)
Fe3 Fe 0.44820(4) 0.33375(3) 0.54641(2)
Fe4 Fe 0.52005(4) 0.69554(3) 0.57558(2)
N1 N 0.3240(2) 0.7414(2) 0.49520(15)
N2 N 0.2856(2) 0.69779(19) 0.55940(15)
H1 H 0.3073 0.6817 0.5793
N3 N 0.3117(2) 0.58799(18) 0.53220(13)
H2 H 0.3482 0.5707 0.5242
N4 N 0.2404(2) 0.65110(19) 0.48888(14)
N5 N 0.6668(2) 0.28387(19) 0.47988(14)
N6 N 0.6878(2) 0.3360(2) 0.41694(13)
H3 H 0.6975 0.3723 0.4107
N7 N 0.5630(2) 0.2886(2) 0.42887(14)
N8 N 0.57270(19) 0.3963(2) 0.42529(13)
H4 H 0.5629 0.4232 0.4431
N9 N 0.6676(2) 0.3945(2) 0.47944(14)
N10 N 0.5565(2) 0.34382(18) 0.49190(13)
N11 N 0.3976(2) 0.67199(19) 0.53666(14)
N12 N 0.3574(2) 0.6357(2) 0.46942(15)
N13 N 0.5346(2) 0.57259(19) 0.59155(14)
N14 N 0.6161(2) 0.46562(19) 0.58843(15)
N15 N 0.4783(2) 0.4461(2) 0.58027(14)
N16 N 0.5354(2) 0.5970(2) 0.43794(14)
N17 N 0.5873(2) 0.67728(18) 0.50072(14)
N18 N 0.6554(2) 0.5637(2) 0.49417(14)
N19 N 0.3796(2) 0.4749(2) 0.41906(14)
N20 N 0.3665(2) 0.3866(2) 0.48646(15)
N21 N 0.8242(2) 0.5196(2) 0.58345(14)
N22 N 0.7628(2) 0.5246(2) 0.57340(14)
N23 N 0.8618(2) 0.4827(2) 0.52240(14)
N24 N 0.8042(2) 0.48346(19) 0.50457(14)
N25 N 0.8303(2) 0.4184(2) 0.57420(15)
N26 N 0.7703(2) 0.4114(2) 0.56118(13)
N27 N 0.5990(2) 0.71727(19) 0.60099(15)
N28 N 0.5997(3) 0.7594(2) 0.62664(16)
N29 N 0.5012(2) 0.77646(19) 0.56917(14)
N30 N 0.5089(3) 0.8108(2) 0.60061(16)
N31 N 0.4935(3) 0.7431(2) 0.65004(16)
N32 N 0.4775(3) 0.7009(2) 0.62640(14)
N33 N 0.4189(3) 0.21551(19) 0.55186(15)
N34 N 0.4279(2) 0.2576(2) 0.52696(14)
N35 N 0.4938(2) 0.2488(2) 0.59900(15)
N36 N 0.5085(2) 0.29806(19) 0.58223(13)
N37 N 0.3805(3) 0.2727(2) 0.60483(15)
N38 N 0.3832(2) 0.3217(2) 0.58625(14)
N39 N 0.4465(2) 0.5715(2) 0.34616(14)
N40 N 0.4280(3) 0.5999(2) 0.31487(14)
N41 N 0.4260(2) 0.6715(2) 0.38093(15)
N42 N 0.4096(3) 0.6899(2) 0.34681(15)
N43 N 0.3272(2) 0.5986(2) 0.37191(14)
N44 N 0.3230(2) 0.6226(2) 0.33778(14)
C1 C 0.3380(3) 0.7559(3) 0.45895(19)
H5 H 0.3482 0.7289 0.4405
C2 C 0.3365(3) 0.8113(3) 0.4505(2)
H6 H 0.3484 0.8225 0.4258
C3 C 0.5624(3) 0.6871(2) 0.52906(19)
C4 C 0.3191(3) 0.8511(3) 0.4754(2)
H7 H 0.3152 0.8887 0.4679
C5 C 0.3071(3) 0.8346(3) 0.5120(2)
H8 H 0.2976 0.8613 0.5308
C6 C 0.3092(3) 0.7784(2) 0.5210(2)
C7 C 0.4452(3) 0.6793(2) 0.55191(16)
C8 C 0.3015(3) 0.7572(2) 0.5599(2)
H9 H 0.3407 0.7627 0.5741
H10 H 0.2680 0.7781 0.5728
C9 C 0.2198(3) 0.6832(3) 0.56484(19)
C10 C 0.1734(3) 0.7158(3) 0.5516(2)
H11 H 0.1825 0.7521 0.5429
C11 C 0.1125(3) 0.6963(3) 0.5507(2)
H12 H 0.0804 0.7192 0.5409
C12 C 0.5320(2) 0.6198(2) 0.58464(15)
C13 C 0.0976(3) 0.6434(3) 0.5639(2)
C14 C 0.0375(4) 0.6225(3) 0.5621(3)
H13 H 0.0050 0.6443 0.5516
C15 C 0.0243(5) 0.5697(4) 0.5756(3)
H14 H -0.0175 0.5566 0.5758
C16 C 0.0725(4) 0.5362(3) 0.5886(3)
H15 H 0.0637 0.4992 0.5958
C17 C 0.1322(3) 0.5553(3) 0.5914(2)
H16 H 0.1637 0.5325 0.6020
C18 C 0.1472(3) 0.6095(3) 0.5784(2)
C19 C 0.2107(3) 0.6302(2) 0.57990(18)
C20 C 0.2628(3) 0.5977(2) 0.59523(18)
C21 C 0.3099(3) 0.5778(2) 0.57186(17)
C22 C 0.3593(3) 0.5470(3) 0.5876(2)
H17 H 0.3905 0.5326 0.5713
C23 C 0.3641(3) 0.5372(3) 0.6250(2)
H18 H 0.3973 0.5153 0.6345
C24 C 0.3197(3) 0.5596(3) 0.64968(19)
C25 C 0.3263(5) 0.5544(4) 0.6892(2)
H19 H 0.3605 0.5342 0.6992
C26 C 0.2837(5) 0.5782(4) 0.7134(3)
H20 H 0.2893 0.5758 0.7400
C27 C 0.2329(5) 0.6058(3) 0.6985(2)
H21 H 0.2029 0.6210 0.7153
C28 C 0.2240(4) 0.6120(3) 0.6607(2)
H22 H 0.1886 0.6315 0.6516
C29 C 0.2679(3) 0.5892(3) 0.63499(18)
C30 C 0.2608(3) 0.5587(2) 0.51096(18)
H23 H 0.2796 0.5335 0.4921
H24 H 0.2359 0.5361 0.5287
C31 C 0.2200(3) 0.5982(2) 0.49186(17)
C32 C 0.1622(3) 0.5809(3) 0.4769(2)
H25 H 0.1486 0.5437 0.4796
C33 C 0.1260(3) 0.6193(3) 0.4583(2)
H26 H 0.0866 0.6090 0.4482
C34 C 0.1473(3) 0.6728(3) 0.4544(2)
H27 H 0.1229 0.6996 0.4415
C35 C 0.2037(3) 0.6866(3) 0.4692(2)
H28 H 0.2183 0.7233 0.4655
C36 C 0.6468(3) 0.2529(3) 0.5100(2)
H29 H 0.6055 0.2583 0.5191
C37 C 0.6833(4) 0.2153(3) 0.5273(2)
H30 H 0.6687 0.1964 0.5490
C38 C 0.7421(4) 0.2043(3) 0.5131(2)
H31 H 0.7676 0.1764 0.5239
C39 C 0.7633(3) 0.2357(3) 0.4820(2)
H32 H 0.8038 0.2299 0.4719
C40 C 0.7241(3) 0.2748(2) 0.46679(18)
C41 C 0.7431(3) 0.3132(2) 0.43536(17)
H33 H 0.7688 0.3436 0.4456
H34 H 0.7685 0.2927 0.4167
C42 C 0.6674(3) 0.3096(3) 0.38263(17)
C43 C 0.6782(3) 0.2522(3) 0.37665(19)
H35 H 0.7040 0.2320 0.3935
C44 C 0.6516(4) 0.2266(3) 0.3471(2)
H36 H 0.6608 0.1887 0.3426
C45 C 0.6101(4) 0.2544(3) 0.3222(2)
C46 C 0.5794(4) 0.2272(4) 0.2928(3)
H37 H 0.5900 0.1898 0.2878
C47 C 0.5352(5) 0.2519(5) 0.2711(3)
H38 H 0.5136 0.2321 0.2520
C48 C 0.5230(4) 0.3086(5) 0.2783(2)
H39 H 0.4915 0.3266 0.2640
C49 C 0.5537(4) 0.3376(4) 0.3042(2)
H40 H 0.5458 0.3761 0.3068
C50 C 0.5987(3) 0.3112(3) 0.32836(19)
C51 C 0.6292(3) 0.3409(3) 0.35811(17)
C52 C 0.6260(3) 0.4025(3) 0.36345(16)
C53 C 0.6042(3) 0.4276(2) 0.39491(17)
C54 C 0.6069(3) 0.4841(3) 0.39852(19)
H41 H 0.5939 0.5000 0.4217
C55 C 0.6268(3) 0.5179(3) 0.37126(19)
H42 H 0.6250 0.5570 0.3741
C56 C 0.6505(3) 0.4941(3) 0.33845(19)
C57 C 0.6745(4) 0.5271(4) 0.3079(2)
H43 H 0.6717 0.5662 0.3096
C58 C 0.6999(4) 0.5054(4) 0.2779(3)
H44 H 0.7147 0.5287 0.2584
C59 C 0.7052(4) 0.4499(4) 0.2746(2)
H45 H 0.7254 0.4350 0.2530
C60 C 0.6819(4) 0.4137(4) 0.30196(19)
H46 H 0.6864 0.3748 0.2992
C61 C 0.6514(3) 0.4364(3) 0.33388(18)
C62 C 0.5111(3) 0.3727(3) 0.4144(2)
H47 H 0.4798 0.3821 0.4339
H48 H 0.4973 0.3894 0.3903
C63 C 0.5145(3) 0.3135(3) 0.41027(17)
C64 C 0.4739(4) 0.2815(4) 0.3899(2)
H49 H 0.4422 0.2991 0.3756
C65 C 0.4774(4) 0.2258(4) 0.3894(2)
H50 H 0.4481 0.2051 0.3751
C66 C 0.5222(4) 0.1995(3) 0.4091(2)
H51 H 0.5249 0.1603 0.4097
C67 C 0.5645(3) 0.2330(3) 0.4286(2)
H52 H 0.5965 0.2152 0.4426
C68 C 0.4866(3) 0.5337(3) 0.33437(19)
H53 H 0.5074 0.5078 0.3501
C69 C 0.4939(4) 0.5373(3) 0.2957(2)
H54 H 0.5191 0.5145 0.2801
C70 C 0.4570(4) 0.5806(3) 0.28454(19)
H55 H 0.4529 0.5943 0.2596
C71 C 0.4495(3) 0.7166(3) 0.3992(2)
H56 H 0.4647 0.7164 0.4244
C72 C 0.4481(4) 0.7623(3) 0.3761(2)
H57 H 0.4628 0.7986 0.3812
C73 C 0.4204(4) 0.7430(3) 0.3438(2)
H58 H 0.4105 0.7650 0.3224
C74 C 0.2710(3) 0.5801(3) 0.38115(19)
H59 H 0.2618 0.5604 0.4037
C75 C 0.2282(3) 0.5929(3) 0.3544(2)
H60 H 0.1846 0.5858 0.3549
C76 C 0.2628(3) 0.6192(3) 0.3255(2)
H61 H 0.2471 0.6320 0.3021
C77 C 0.4903(3) 0.5924(2) 0.42107(16)
C78 C 0.3947(3) 0.5197(3) 0.41019(15)
C79 C 0.3783(3) 0.6167(2) 0.44160(18)
C80 C 0.9065(3) 0.4899(3) 0.49633(19)
H62 H 0.9502 0.4899 0.5010
C81 C 0.8794(3) 0.4972(3) 0.4625(2)
H63 H 0.8995 0.5038 0.4390
C82 C 0.8149(3) 0.4929(2) 0.46928(18)
H64 H 0.7835 0.4965 0.4505
C83 C 0.8368(3) 0.5573(3) 0.6108(2)
H65 H 0.8759 0.5621 0.6229
C84 C 0.7859(4) 0.5862(3) 0.61786(19)
H66 H 0.7815 0.6157 0.6354
C85 C 0.7393(3) 0.5644(2) 0.59396(17)
H67 H 0.6972 0.5767 0.5930
C86 C 0.8483(4) 0.3730(3) 0.5930(2)
H68 H 0.8873 0.3685 0.6054
C87 C 0.8015(3) 0.3339(3) 0.5917(2)
H69 H 0.8017 0.2979 0.6024
C88 C 0.7544(3) 0.3588(3) 0.57132(18)
H70 H 0.7159 0.3416 0.5652
C89 C 0.6578(3) 0.4649(2) 0.56696(18)
C90 C 0.6847(3) 0.5304(3) 0.51028(17)
C91 C 0.6915(2) 0.4234(2) 0.50067(16)
C92 C 0.5440(3) 0.2307(3) 0.6187(2)
H71 H 0.5455 0.1975 0.6330
C93 C 0.5917(3) 0.2670(3) 0.61501(19)
H72 H 0.6322 0.2649 0.6258
C94 C 0.5668(3) 0.3087(3) 0.59126(18)
H73 H 0.5894 0.3402 0.5829
C95 C 0.3377(3) 0.2768(3) 0.63276(18)
H74 H 0.3266 0.2480 0.6497
C96 C 0.3132(3) 0.3287(3) 0.63278(18)
H75 H 0.2826 0.3433 0.6494
C97 C 0.3429(3) 0.3556(3) 0.60302(17)
H76 H 0.3355 0.3929 0.5958
C98 C 0.4027(3) 0.1691(3) 0.5323(2)
H77 H 0.3929 0.1342 0.5432
C99 C 0.4028(3) 0.1808(3) 0.4941(2)
H78 H 0.3948 0.1561 0.4739
C100 C 0.4173(3) 0.2376(3) 0.4918(2)
H79 H 0.4193 0.2586 0.4692
C101 C 0.5136(3) 0.3413(2) 0.51176(16)
C102 C 0.3940(3) 0.3664(2) 0.51056(17)
C103 C 0.4674(3) 0.4043(2) 0.56717(15)
C104 C 0.6586(4) 0.7690(3) 0.6393(3)
H80 H 0.6705 0.7957 0.6576
C105 C 0.6980(4) 0.7329(3) 0.6206(3)
H81 H 0.7420 0.7298 0.6232
C106 C 0.6594(3) 0.7024(3) 0.5974(2)
H82 H 0.6737 0.6742 0.5808
C107 C 0.4600(5) 0.7348(4) 0.6827(2)
H83 H 0.4608 0.7584 0.7041
C108 C 0.4255(5) 0.6878(4) 0.6796(2)
H84 H 0.3989 0.6721 0.6981
C109 C 0.4372(4) 0.6679(3) 0.6439(2)
H85 H 0.4192 0.6355 0.6334
C110 C 0.4828(3) 0.8599(2) 0.59195(19)
H86 H 0.4818 0.8910 0.6084
C111 C 0.4582(3) 0.8592(2) 0.5564(2)
H87 H 0.4369 0.8880 0.5435
C112 C 0.4719(3) 0.8054(3) 0.54364(19)
H88 H 0.4612 0.7918 0.5194
B1 B 0.8630(3) 0.4728(3) 0.5656(2)
H89 H 0.9068 0.4728 0.5755
B2 B 0.5362(4) 0.7869(3) 0.6368(2)
H90 H 0.5416 0.8163 0.6564
B3 B 0.3812(4) 0.6463(3) 0.3188(2)
H91 H 0.3711 0.6634 0.2939
B4 B 0.4258(4) 0.2277(3) 0.5940(2)
H92 H 0.4184 0.1935 0.6093
O1 O 0.0664(4) 0.7452(4) 0.7031(3)
C113 C 0.1142(8) 0.7383(5) 0.6474(5)
H93 H 0.1404 0.7097 0.6588
H94 H 0.1403 0.7640 0.6330
H95 H 0.0838 0.7210 0.6305
C114 C 0.0832(5) 0.7668(5) 0.6752(3)
C115 C 0.0714(4) 0.8293(4) 0.6687(2)
H96 H 0.0386 0.8421 0.6859
H97 H 0.0584 0.8353 0.6426
H98 H 0.1099 0.8499 0.6737
O2 O 0.5384(2) 0.47143(18) 0.48839(14)
D1 D 0.5669(2) 0.49539(18) 0.49148(14)
D2 D 0.5040(2) 0.48769(18) 0.48381(14)
O3 O 1.0421(3) 0.5027(2) 0.45209(19)
C116 C 1.0783(4) 0.5004(4) 0.3889(3)
H99 H 1.0444 0.5156 0.3736
H100 H 1.1003 0.4718 0.3745
H101 H 1.1075 0.5300 0.3956
C117 C 1.0520(4) 0.4756(4) 0.4239(3)
C118 C 1.0423(5) 0.4128(4) 0.4236(3)
H102 H 1.0816 0.3943 0.4300
H103 H 1.0289 0.4011 0.3984
H104 H 1.0103 0.4028 0.4421
O4 O 0.4072(4) 0.5175(3) 0.5046(2)
D3 D 0.3900(4) 0.4869(3) 0.5101(2)
D4 D 0.3978(4) 0.5220(3) 0.4815(2)
O6 O 0.7682(3) 0.4236(3) 0.39464(18)
C119 C 0.8068(4) 0.5050(4) 0.3668(3)
H105 H 0.7725 0.5232 0.3803
H106 H 0.8050 0.5149 0.3401
H107 H 0.8467 0.5171 0.3774
C120 C 0.8008(4) 0.4428(4) 0.3710(3)
C121 C 0.8397(7) 0.4084(5) 0.3443(4)
H108 H 0.8304 0.3691 0.3481
H109 H 0.8840 0.4152 0.3491
H110 H 0.8298 0.4187 0.3182
O7 O 0.7657(4) 0.6052(3) 0.21751(19)
C122 C 0.8374(5) 0.6227(4) 0.1720(3)
H111 H 0.8212 0.6448 0.1510
H112 H 0.8696 0.5973 0.1626
H113 H 0.8556 0.6472 0.1910
C123 C 0.7883(4) 0.5919(3) 0.1882(2)
C124 C 0.7581(8) 0.5489(6) 0.1632(3)
H114 H 0.7351 0.5223 0.1788
H115 H 0.7904 0.5294 0.1488
H116 H 0.7292 0.5671 0.1458
O8 O 0.3009(4) 0.3896(3) 0.28649(19)
C125 C 0.4002(6) 0.4086(5) 0.3175(3)
H117 H 0.4062 0.3691 0.3228
H118 H 0.4120 0.4303 0.3397
H119 H 0.4264 0.4194 0.2961
C126 C 0.3310(6) 0.4194(4) 0.3079(3)
C127 C 0.3087(6) 0.4682(5) 0.3271(3)
H120 H 0.2630 0.4693 0.3261
H121 H 0.3257 0.5013 0.3149
H122 H 0.3222 0.4673 0.3535
O9 O 0.6235(5) 0.1037(4) 0.4121(2)
C128 C 0.7111(5) 0.0847(4) 0.4474(3)
H123 H 0.7251 0.0548 0.4308
H124 H 0.7202 0.0748 0.4737
H125 H 0.7331 0.1189 0.4409
C129 C 0.6410(5) 0.0932(4) 0.4426(2)
C130 C 0.5996(5) 0.0859(5) 0.4762(3)
H126 H 0.5582 0.1012 0.4707
H127 H 0.6176 0.1054 0.4979
H128 H 0.5957 0.0465 0.4821
Br5? Br 0.3163(3) 0.3350(2) 0.39720(16)
Br6? Br 0.2325(6) 0.4348(7) 0.4537(7)
O5? O 0.4341(5) 0.5425(4) 0.5053(3)
D5? D 0.4376(5) 0.5632(4) 0.4861(3)
D6? D 0.4544(5) 0.5596(4) 0.5223(3)
loop_
_geom_bond_atom_site_label_1
_geom_bond_atom_site_label_2
_geom_bond_site_symmetry_1
_geom_bond_site_symmetry_2
Br1 Co3 1_555 1_555
Br2 Co4 1_555 1_555
Br3 Co5 1_555 1_555
Br4 Co5 1_555 1_555
Co1 N1 1_555 1_555
Co2 N5 1_555 1_555
Co3 N16 1_555 1_555
Co4 N13 1_555 1_555
Co5 N19 1_555 1_555
Fe1 N39 1_555 1_555
Fe2 N22 1_555 1_555
Fe3 N34 1_555 1_555
Fe4 N27 1_555 1_555
N1 C1 1_555 1_555
N2 Co1 1_555 1_555
H1 N2 1_555 1_555
N3 Co1 1_555 1_555
H2 N3 1_555 1_555
N4 Co1 1_555 1_555
N5 C36 1_555 1_555
N6 Co2 1_555 1_555
H3 N6 1_555 1_555
N7 Co2 1_555 1_555
N8 Co2 1_555 1_555
H4 N8 1_555 1_555
N9 Co2 1_555 1_555
N10 Co2 1_555 1_555
N11 Co1 1_555 1_555
N12 Co1 1_555 1_555
N13 C12 1_555 1_555
N14 Co4 1_555 1_555
N15 Co4 1_555 1_555
N16 C77 1_555 1_555
N17 Co3 1_555 1_555
N18 Co3 1_555 1_555
N19 C78 1_555 1_555
N20 Co5 1_555 1_555
N21 N22 1_555 1_555
N22 C85 1_555 1_555
N23 N24 1_555 1_555
N24 Fe2 1_555 1_555
N25 N26 1_555 1_555
N26 Fe2 1_555 1_555
N27 N28 1_555 1_555
N28 C104 1_555 1_555
N29 Fe4 1_555 1_555
N30 N29 1_555 1_555
N31 N32 1_555 1_555
N32 Fe4 1_555 1_555
N33 N34 1_555 1_555
N34 C100 1_555 1_555
N35 N36 1_555 1_555
N36 Fe3 1_555 1_555
N37 N38 1_555 1_555
N38 Fe3 1_555 1_555
N39 N40 1_555 1_555
N40 C70 1_555 1_555
N41 Fe1 1_555 1_555
N42 N41 1_555 1_555
N43 Fe1 1_555 1_555
N44 N43 1_555 1_555
C1 H5 1_555 1_555
C2 C1 1_555 1_555
H6 C2 1_555 1_555
C3 Fe4 1_555 1_555
C4 C2 1_555 1_555
H7 C4 1_555 1_555
C5 C4 1_555 1_555
H8 C5 1_555 1_555
C6 N1 1_555 1_555
C7 Fe4 1_555 1_555
C8 N2 1_555 1_555
H9 C8 1_555 1_555
H10 C8 1_555 1_555
C9 N2 1_555 1_555
C10 C9 1_555 1_555
H11 C10 1_555 1_555
C11 C10 1_555 1_555
H12 C11 1_555 1_555
C12 Fe4 1_555 1_555
C13 C11 1_555 1_555
C14 C13 1_555 1_555
H13 C14 1_555 1_555
C15 C14 1_555 1_555
H14 C15 1_555 1_555
C16 C15 1_555 1_555
H15 C16 1_555 1_555
C17 C16 1_555 1_555
H16 C17 1_555 1_555
C18 C13 1_555 1_555
C19 C9 1_555 1_555
C20 C19 1_555 1_555
C21 N3 1_555 1_555
C22 C21 1_555 1_555
H17 C22 1_555 1_555
C23 C22 1_555 1_555
H18 C23 1_555 1_555
C24 C23 1_555 1_555
C25 C24 1_555 1_555
H19 C25 1_555 1_555
C26 C25 1_555 1_555
H20 C26 1_555 1_555
C27 C26 1_555 1_555
H21 C27 1_555 1_555
C28 C27 1_555 1_555
H22 C28 1_555 1_555
C29 C20 1_555 1_555
C30 N3 1_555 1_555
H23 C30 1_555 1_555
H24 C30 1_555 1_555
C31 N4 1_555 1_555
C32 C31 1_555 1_555
H25 C32 1_555 1_555
C33 C32 1_555 1_555
H26 C33 1_555 1_555
C34 C33 1_555 1_555
H27 C34 1_555 1_555
C35 N4 1_555 1_555
H28 C35 1_555 1_555
C36 H29 1_555 1_555
C37 C36 1_555 1_555
H30 C37 1_555 1_555
C38 C37 1_555 1_555
H31 C38 1_555 1_555
C39 C38 1_555 1_555
H32 C39 1_555 1_555
C40 N5 1_555 1_555
C41 N6 1_555 1_555
H33 C41 1_555 1_555
H34 C41 1_555 1_555
C42 N6 1_555 1_555
C43 C42 1_555 1_555
H35 C43 1_555 1_555
C44 C43 1_555 1_555
H36 C44 1_555 1_555
C45 C44 1_555 1_555
C46 C45 1_555 1_555
H37 C46 1_555 1_555
C47 C46 1_555 1_555
H38 C47 1_555 1_555
C48 C47 1_555 1_555
H39 C48 1_555 1_555
C49 C48 1_555 1_555
H40 C49 1_555 1_555
C50 C45 1_555 1_555
C51 C42 1_555 1_555
C52 C51 1_555 1_555
C53 N8 1_555 1_555
C54 C53 1_555 1_555
H41 C54 1_555 1_555
C55 C54 1_555 1_555
H42 C55 1_555 1_555
C56 C55 1_555 1_555
C57 C56 1_555 1_555
H43 C57 1_555 1_555
C58 C57 1_555 1_555
H44 C58 1_555 1_555
C59 C58 1_555 1_555
H45 C59 1_555 1_555
C60 C59 1_555 1_555
H46 C60 1_555 1_555
C61 C52 1_555 1_555
C62 N8 1_555 1_555
H47 C62 1_555 1_555
H48 C62 1_555 1_555
C63 N7 1_555 1_555
C64 C63 1_555 1_555
H49 C64 1_555 1_555
C65 C64 1_555 1_555
H50 C65 1_555 1_555
C66 C65 1_555 1_555
H51 C66 1_555 1_555
C67 N7 1_555 1_555
H52 C67 1_555 1_555
C68 N39 1_555 1_555
H53 C68 1_555 1_555
C69 C68 1_555 1_555
H54 C69 1_555 1_555
C70 C69 1_555 1_555
H55 C70 1_555 1_555
C71 N41 1_555 1_555
H56 C71 1_555 1_555
C72 C71 1_555 1_555
H57 C72 1_555 1_555
C73 N42 1_555 1_555
H58 C73 1_555 1_555
C74 N43 1_555 1_555
H59 C74 1_555 1_555
C75 C74 1_555 1_555
H60 C75 1_555 1_555
C76 N44 1_555 1_555
H61 C76 1_555 1_555
C77 Fe1 1_555 1_555
C78 Fe1 1_555 1_555
C79 Fe1 1_555 1_555
C80 N23 1_555 1_555
H62 C80 1_555 1_555
C81 C80 1_555 1_555
H63 C81 1_555 1_555
C82 N24 1_555 1_555
H64 C82 1_555 1_555
C83 N21 1_555 1_555
H65 C83 1_555 1_555
C84 C83 1_555 1_555
H66 C84 1_555 1_555
C85 C84 1_555 1_555
H67 C85 1_555 1_555
C86 N25 1_555 1_555
H68 C86 1_555 1_555
C87 C86 1_555 1_555
H69 C87 1_555 1_555
C88 N26 1_555 1_555
H70 C88 1_555 1_555
C89 Fe2 1_555 1_555
C90 Fe2 1_555 1_555
C91 Fe2 1_555 1_555
C92 N35 1_555 1_555
H71 C92 1_555 1_555
C93 C92 1_555 1_555
H72 C93 1_555 1_555
C94 N36 1_555 1_555
H73 C94 1_555 1_555
C95 N37 1_555 1_555
H74 C95 1_555 1_555
C96 C95 1_555 1_555
H75 C96 1_555 1_555
C97 N38 1_555 1_555
H76 C97 1_555 1_555
C98 N33 1_555 1_555
H77 C98 1_555 1_555
C99 C98 1_555 1_555
H78 C99 1_555 1_555
C100 C99 1_555 1_555
H79 C100 1_555 1_555
C101 Fe3 1_555 1_555
C102 Fe3 1_555 1_555
C103 Fe3 1_555 1_555
C104 H80 1_555 1_555
C105 C104 1_555 1_555
H81 C105 1_555 1_555
C106 N27 1_555 1_555
H82 C106 1_555 1_555
C107 N31 1_555 1_555
H83 C107 1_555 1_555
C108 C107 1_555 1_555
H84 C108 1_555 1_555
C109 N32 1_555 1_555
H85 C109 1_555 1_555
C110 N30 1_555 1_555
H86 C110 1_555 1_555
C111 C110 1_555 1_555
H87 C111 1_555 1_555
C112 N29 1_555 1_555
H88 C112 1_555 1_555
B1 N21 1_555 1_555
H89 B1 1_555 1_555
B2 N28 1_555 1_555
H90 B2 1_555 1_555
B3 N40 1_555 1_555
H91 B3 1_555 1_555
B4 N33 1_555 1_555
H92 B4 1_555 1_555
O1 C114 1_555 1_555
C113 H93 1_555 1_555
H94 C113 1_555 1_555
H95 C113 1_555 1_555
C114 C113 1_555 1_555
C115 C114 1_555 1_555
H96 C115 1_555 1_555
H97 C115 1_555 1_555
H98 C115 1_555 1_555
O2 D1 1_555 1_555
D2 O2 1_555 1_555
O3 C117 1_555 1_555
C116 H99 1_555 1_555
H100 C116 1_555 1_555
H101 C116 1_555 1_555
C117 C116 1_555 1_555
C118 C117 1_555 1_555
H102 C118 1_555 1_555
H103 C118 1_555 1_555
H104 C118 1_555 1_555
O4 D3 1_555 1_555
D4 O4 1_555 1_555
O6 C120 1_555 1_555
C119 H105 1_555 1_555
H106 C119 1_555 1_555
H107 C119 1_555 1_555
C120 C119 1_555 1_555
C121 C120 1_555 1_555
H108 C121 1_555 1_555
H109 C121 1_555 1_555
H110 C121 1_555 1_555
O7 C123 1_555 1_555
C122 H111 1_555 1_555
H112 C122 1_555 1_555
H113 C122 1_555 1_555
C123 C122 1_555 1_555
C124 C123 1_555 1_555
H114 C124 1_555 1_555
H115 C124 1_555 1_555
H116 C124 1_555 1_555
O8 C126 1_555 1_555
C125 H117 1_555 1_555
H118 C125 1_555 1_555
H119 C125 1_555 1_555
C126 C125 1_555 1_555
C127 C126 1_555 1_555
H120 C127 1_555 1_555
H121 C127 1_555 1_555
H122 C127 1_555 1_555
O9 C129 1_555 1_555
C128 H123 1_555 1_555
H124 C128 1_555 1_555
H125 C128 1_555 1_555
C129 C128 1_555 1_555
C130 C129 1_555 1_555
H126 C130 1_555 1_555
H127 C130 1_555 1_555
H128 C130 1_555 1_555
N9 C91 1_555 1_555
N10 C101 1_555 1_555
N11 C7 1_555 1_555
N12 C79 1_555 1_555
N14 C89 1_555 1_555
N15 C103 1_555 1_555
N17 C3 1_555 1_555
N18 C90 1_555 1_555
N20 C102 1_555 1_555
N23 B1 1_555 1_555
N25 B1 1_555 1_555
N30 B2 1_555 1_555
N31 B2 1_555 1_555
N35 B4 1_555 1_555
N37 B4 1_555 1_555
N42 B3 1_555 1_555
N44 B3 1_555 1_555
C5 C6 1_555 1_555
C6 C8 1_555 1_555
C17 C18 1_555 1_555
C18 C19 1_555 1_555
C20 C21 1_555 1_555
C24 C29 1_555 1_555
C28 C29 1_555 1_555
C30 C31 1_555 1_555
C34 C35 1_555 1_555
C39 C40 1_555 1_555
C40 C41 1_555 1_555
C49 C50 1_555 1_555
C50 C51 1_555 1_555
C52 C53 1_555 1_555
C56 C61 1_555 1_555
C60 C61 1_555 1_555
C62 C63 1_555 1_555
C66 C67 1_555 1_555
C72 C73 1_555 1_555
C75 C76 1_555 1_555
C81 C82 1_555 1_555
C87 C88 1_555 1_555
C93 C94 1_555 1_555
C96 C97 1_555 1_555
C105 C106 1_555 1_555
C108 C109 1_555 1_555
C111 C112 1_555 1_555

#END
