
#######################################################################
#
#                 Cambridge Crystallographic Data Centre
#                                CCDC 
#
#######################################################################
#
# If this CIF has been generated from an entry in the Cambridge 
# Structural Database, then it will include bibliographic, chemical, 
# crystal, experimental, refinement or atomic coordinate data resulting 
# from the CCDC's data processing and validation procedures.
#
#######################################################################

data_EZIZES
_chemical_formula_moiety         'C80 H48 Ni4 O32,4(C4 H8 O1),16(H2 O1)'
_chemical_name_systematic        
"tetrakis(\m~2~-2,2'-Bi-(3-oxy-1,4-naphthoquinone)-O,O',O'',O''')-octa-aqua-tetra-nickel(ii) tetrahydrofuran solvate hexadecahydrate"
_symmetry_cell_setting           triclinic
_symmetry_space_group_name_H-M   'P -1'
_symmetry_Int_Tables_number      2
_space_group_name_Hall           '-P 1'
loop_
_symmetry_equiv_pos_site_id
_symmetry_equiv_pos_as_xyz
1 x,y,z
2 -x,-y,-z
_cell_length_a                   14.618(3)
_cell_length_b                   18.240(3)
_cell_length_c                   14.088(4)
_cell_angle_alpha                103.785(15)
_cell_angle_beta                 99.440(15)
_cell_angle_gamma                109.814(12)
_cell_volume                     3306.69
_exptl_crystal_colour            red
_exptl_crystal_description       block
_cell_formula_units_Z            1
_chemical_properties_physical    air-sensitive
loop_
_atom_site_label
_atom_site_type_symbol
_atom_site_fract_x
_atom_site_fract_y
_atom_site_fract_z
Ni1 Ni 0.68973(8) 0.37310(7) 0.66137(9)
Ni2 Ni 0.31935(8) 0.00049(6) 0.67819(8)
O1 O 0.3752(4) 0.1243(3) 0.7217(4)
O2 O 0.2176(4) 0.0171(3) 0.5718(4)
O3 O 0.3096(6) 0.3365(4) 0.6296(7)
O4 O 0.5453(4) 0.3157(4) 0.6596(5)
O5 O 0.6943(5) 0.4299(4) 0.8109(5)
O6 O 0.3432(6) 0.2877(4) 0.8876(5)
O7 O 0.6852(4) 0.3154(3) 0.5207(4)
O8 O 0.8407(4) 0.4294(4) 0.6634(5)
O9 O 0.9066(5) 0.2851(4) 0.3212(6)
O10 O 0.2662(4) -0.1231(3) 0.6350(4)
O11 O 0.4238(4) -0.0140(3) 0.7839(5)
O12 O 0.6532(5) 0.3316(4) 0.2813(6)
O13 O 0.6580(6) 0.4644(4) 0.6175(6)
O14 O 0.7296(6) 0.2876(5) 0.7151(6)
O15 O 0.4131(6) -0.0003(4) 0.5806(6)
O16 O 0.2274(5) 0.0001(4) 0.7729(5)
C1 C 0.3242(5) 0.1533(4) 0.6677(6)
C2 C 0.2355(6) 0.0906(5) 0.5836(6)
C3 C 0.1715(6) 0.1161(5) 0.5199(6)
C4 C 0.0859(7) 0.0586(6) 0.4447(8)
C5 C 0.0265(8) 0.0841(9) 0.3846(10)
C6 C 0.0528(11) 0.1684(11) 0.4031(13)
C7 C 0.1381(9) 0.2260(8) 0.4759(11)
C8 C 0.1977(6) 0.1991(6) 0.5363(8)
C9 C 0.2878(7) 0.2626(6) 0.6197(8)
C10 C 0.3477(6) 0.2348(4) 0.6824(6)
C11 C 0.4361(6) 0.2989(4) 0.7668(6)
C12 C 0.5265(6) 0.3339(4) 0.7460(6)
C13 C 0.6145(7) 0.4000(5) 0.8303(6)
C14 C 0.6033(7) 0.4266(5) 0.9331(7)
C15 C 0.6827(8) 0.4892(7) 1.0122(8)
C16 C 0.6689(11) 0.5099(7) 1.1069(8)
C17 C 0.5780(13) 0.4713(8) 1.1269(8)
C18 C 0.4976(9) 0.4097(6) 1.0467(8)
C19 C 0.5111(8) 0.3864(5) 0.9520(6)
C20 C 0.4243(7) 0.3208(5) 0.8688(7)
C21 C 0.7722(6) 0.3326(4) 0.5001(7)
C22 C 0.8586(6) 0.3986(5) 0.5863(7)
C23 C 0.9618(6) 0.4217(5) 0.5756(7)
C24 C 1.0446(7) 0.4817(5) 0.6531(8)
C25 C 1.1405(7) 0.5011(6) 0.6411(10)
C26 C 1.1557(7) 0.4624(7) 0.5532(11)
C27 C 1.0751(7) 0.4040(6) 0.4746(8)
C28 C 0.9768(6) 0.3819(5) 0.4836(7)
C29 C 0.8905(6) 0.3179(5) 0.3992(7)
C30 C 0.7890(6) 0.2962(4) 0.4109(6)
C31 C 0.7019(6) 0.2325(4) 0.3284(6)
C32 C 0.3171(6) -0.1509(4) 0.6891(6)
C33 C 0.4065(6) -0.0872(5) 0.7725(6)
C34 C 0.4694(6) -0.1119(5) 0.8390(6)
C35 C 0.5502(8) -0.0546(6) 0.9199(7)
C36 C 0.6092(9) -0.0808(9) 0.9786(8)
C37 C 0.5878(11) -0.1616(9) 0.9605(10)
C38 C 0.5093(10) -0.2185(8) 0.8822(9)
C39 C 0.4491(7) -0.1956(6) 0.8192(7)
C40 C 0.6389(6) 0.2584(5) 0.2671(7)
H1 H 0.0683 0.0013 0.4344
H2 H -0.0322 0.0438 0.3331
H3 H 0.0091 0.1843 0.3641
H4 H 0.1569 0.2840 0.4877
H5 H 0.7452 0.5187 0.9976
H6 H 0.7258 0.5525 1.1608
H7 H 0.5730 0.4886 1.1933
H8 H 0.4327 0.3837 1.0588
H9 H 1.0336 0.5097 0.7142
H10 H 1.1961 0.5416 0.6953
H11 H 1.2221 0.4764 0.5457
H12 H 1.0862 0.3776 0.4130
H13 H 0.5672 0.0031 0.9313
H14 H 0.6636 -0.0420 1.0357
H15 H 0.6279 -0.1793 1.0029
H16 H 0.4968 -0.2759 0.8690
C31A C 0.2981(6) -0.2325(4) 0.6716(6)
C30A C 0.2110(6) -0.2962(4) 0.5891(6)
C21A C 0.2278(6) -0.3326(4) 0.4999(7)
O7A O 0.3148(4) -0.3154(3) 0.4793(4)
Ni1A Ni 0.31027(8) -0.37310(7) 0.33863(9)
O4A O 0.4547(4) -0.3157(4) 0.3404(5)
C12A C 0.4735(6) -0.3339(4) 0.2540(6)
C11A C 0.5639(6) -0.2989(4) 0.2332(6)
C10A C 0.6523(6) -0.2348(4) 0.3176(6)
C1A C 0.6758(5) -0.1533(4) 0.3323(6)
O1A O 0.6248(4) -0.1243(3) 0.2783(4)
Ni2A Ni 0.68065(8) -0.00049(6) 0.32181(8)
O2A O 0.7824(4) -0.0171(3) 0.4282(4)
C2A C 0.7645(6) -0.0906(5) 0.4164(6)
C3A C 0.8285(6) -0.1161(5) 0.4801(6)
C4A C 0.9141(7) -0.0586(6) 0.5553(8)
C5A C 0.9735(8) -0.0841(9) 0.6154(10)
C6A C 0.9472(11) -0.1684(11) 0.5969(13)
C7A C 0.8619(9) -0.2260(8) 0.5241(11)
C8A C 0.8023(6) -0.1991(6) 0.4637(8)
C9A C 0.7122(7) -0.2626(6) 0.3803(8)
O3A O 0.6904(6) -0.3365(4) 0.3704(7)
H4A H 0.8431 -0.2840 0.5123
H3A H 0.9909 -0.1843 0.6359
H2A H 1.0322 -0.0438 0.6669
H1A H 0.9317 -0.0013 0.5656
O10A O 0.7338(4) 0.1231(3) 0.3650(4)
C32A C 0.6829(6) 0.1509(4) 0.3109(6)
C39A C 0.5509(7) 0.1956(6) 0.1808(7)
C34A C 0.5306(6) 0.1119(5) 0.1610(6)
C33A C 0.5935(6) 0.0872(5) 0.2275(6)
O11A O 0.5762(4) 0.0140(3) 0.2161(5)
O15A O 0.5869(6) 0.0003(4) 0.4194(6)
O16A O 0.7726(5) -0.0001(4) 0.2271(5)
C35A C 0.4498(8) 0.0546(6) 0.0801(7)
C36A C 0.3908(9) 0.0808(9) 0.0214(8)
C37A C 0.4122(11) 0.1616(9) 0.0395(10)
C38A C 0.4907(10) 0.2185(8) 0.1178(9)
H16A H 0.5032 0.2759 0.1310
H15A H 0.3721 0.1793 -0.0029
H14A H 0.3364 0.0420 -0.0357
H13A H 0.4328 -0.0031 0.0687
C20A C 0.5757(7) -0.3208(5) 0.1312(7)
O6A O 0.6568(6) -0.2877(4) 0.1124(5)
C19A C 0.4889(8) -0.3864(5) 0.0480(6)
C14A C 0.3967(7) -0.4266(5) 0.0669(7)
C13A C 0.3855(7) -0.4000(5) 0.1697(6)
O5A O 0.3057(5) -0.4299(4) 0.1891(5)
O8A O 0.1593(4) -0.4294(4) 0.3366(5)
C22A C 0.1414(6) -0.3986(5) 0.4137(7)
C23A C 0.0382(6) -0.4217(5) 0.4244(7)
C24A C -0.0446(7) -0.4817(5) 0.3469(8)
C25A C -0.1405(7) -0.5011(6) 0.3589(10)
C26A C -0.1557(7) -0.4624(7) 0.4468(11)
C27A C -0.0751(7) -0.4040(6) 0.5254(8)
C28A C 0.0232(6) -0.3819(5) 0.5164(7)
C29A C 0.1095(6) -0.3179(5) 0.6008(7)
O9A O 0.0934(5) -0.2851(4) 0.6788(6)
H12A H -0.0862 -0.3776 0.5870
H11A H -0.2221 -0.4764 0.4543
H10A H -0.1961 -0.5416 0.3047
H9A H -0.0336 -0.5097 0.2858
O13A O 0.3420(6) -0.4644(4) 0.3825(6)
O14A O 0.2704(6) -0.2876(5) 0.2849(6)
C15A C 0.3173(8) -0.4892(7) -0.0122(8)
C16A C 0.3311(11) -0.5099(7) -0.1069(8)
C17A C 0.4220(13) -0.4713(8) -0.1269(8)
C18A C 0.5024(9) -0.4097(6) -0.0467(8)
H8A H 0.5673 -0.3837 -0.0588
H7A H 0.4270 -0.4886 -0.1933
H6A H 0.2742 -0.5525 -0.1608
H5A H 0.2548 -0.5187 0.0024
C40A C 0.3611(6) -0.2584(5) 0.7329(7)
O12A O 0.3468(5) -0.3316(4) 0.7187(6)
O17 O 0.1838(7) 0.1331(5) 0.8331(9)
O18 O 0.5788(11) 0.1678(12) 0.745(3)
O19 O 0.4852(8) 0.4696(6) 0.6528(9)
O20 O 0.537(2) 0.1448(11) 0.511(3)
O21 O 0.437(3) 0.267(4) 0.454(3)
O22 O 0.5682(8) 0.4144(6) 0.4040(8)
O23 O 0.751(2) 0.1665(10) 0.5706(10)
O24 O 0.8409(9) 0.1349(5) 0.1687(7)
O25 O 0.006(3) 0.179(3) 0.774(4)
C41 C -0.010(3) 0.175(3) 0.662(4)
C42 C 0.062(4) 0.267(4) 0.686(4)
C43 C 0.043(4) 0.313(3) 0.778(5)
C44 C 0.063(5) 0.265(4) 0.853(4)
O26 O 0.788(2) 0.6280(15) 0.7129(19)
C45 C 0.729(4) 0.682(4) 0.718(5)
C46 C 0.724(4) 0.688(3) 0.828(5)
C47 C 0.799(4) 0.665(4) 0.886(3)
C48 C 0.863(3) 0.660(2) 0.815(3)
loop_
_geom_bond_atom_site_label_1
_geom_bond_atom_site_label_2
_geom_bond_site_symmetry_1
_geom_bond_site_symmetry_2
Ni1 O4 1_555 1_555
Ni2 O1 1_555 1_555
O1 C1 1_555 1_555
O2 Ni2 1_555 1_555
O3 C9 1_555 1_555
O4 C12 1_555 1_555
O5 Ni1 1_555 1_555
O6 C20 1_555 1_555
O7 Ni1 1_555 1_555
O8 Ni1 1_555 1_555
O9 C29 1_555 1_555
O10 Ni2 1_555 1_555
O11 Ni2 1_555 1_555
O12 C40 1_555 1_555
O13 Ni1 1_555 1_555
O14 Ni1 1_555 1_555
O15 Ni2 1_555 1_555
O16 Ni2 1_555 1_555
O25 C41 1_555 1_555
O26 C45 1_555 1_555
C1 C2 1_555 1_555
C2 O2 1_555 1_555
C3 C2 1_555 1_555
C4 C3 1_555 1_555
C5 C4 1_555 1_555
C6 C5 1_555 1_555
C7 C6 1_555 1_555
C8 C3 1_555 1_555
C9 C8 1_555 1_555
C10 C1 1_555 1_555
C11 C10 1_555 1_555
C12 C11 1_555 1_555
C13 O5 1_555 1_555
C14 C13 1_555 1_555
C15 C14 1_555 1_555
C16 C15 1_555 1_555
C17 C16 1_555 1_555
C18 C17 1_555 1_555
C19 C14 1_555 1_555
C20 C11 1_555 1_555
C21 O7 1_555 1_555
C22 O8 1_555 1_555
C23 C22 1_555 1_555
C24 C23 1_555 1_555
C25 C24 1_555 1_555
C26 C25 1_555 1_555
C27 C26 1_555 1_555
C28 C23 1_555 1_555
C29 C28 1_555 1_555
C30 C21 1_555 1_555
C31 C30 1_555 1_555
C32 O10 1_555 1_555
C33 O11 1_555 1_555
C34 C33 1_555 1_555
C35 C34 1_555 1_555
C36 C35 1_555 1_555
C37 C36 1_555 1_555
C38 C37 1_555 1_555
C39 C34 1_555 1_555
C40 C31 1_555 1_555
C41 C42 1_555 1_555
C42 C43 1_555 1_555
C43 C44 1_555 1_555
C44 O25 1_555 1_555
C45 C46 1_555 1_555
C46 C47 1_555 1_555
C47 C48 1_555 1_555
C48 O26 1_555 1_555
H1 C4 1_555 1_555
H2 C5 1_555 1_555
H3 C6 1_555 1_555
H4 C7 1_555 1_555
H5 C15 1_555 1_555
H6 C16 1_555 1_555
H7 C17 1_555 1_555
H8 C18 1_555 1_555
H9 C24 1_555 1_555
H10 C25 1_555 1_555
H11 C26 1_555 1_555
H12 C27 1_555 1_555
H13 C35 1_555 1_555
H14 C36 1_555 1_555
H15 C37 1_555 1_555
H16 C38 1_555 1_555
C31A C32 1_555 1_555
C30A C31A 1_555 1_555
C21A C30A 1_555 1_555
O7A C21A 1_555 1_555
Ni1A O7A 1_555 1_555
O4A Ni1A 1_555 1_555
C12A O4A 1_555 1_555
C11A C12A 1_555 1_555
C10A C11A 1_555 1_555
C1A C10A 1_555 1_555
O1A C1A 1_555 1_555
Ni2A O1A 1_555 1_555
O2A Ni2A 1_555 1_555
C2A C1A 1_555 1_555
C3A C2A 1_555 1_555
C4A C3A 1_555 1_555
C5A C4A 1_555 1_555
C6A C5A 1_555 1_555
C7A C6A 1_555 1_555
C8A C3A 1_555 1_555
C9A C10A 1_555 1_555
O3A C9A 1_555 1_555
H4A C7A 1_555 1_555
H3A C6A 1_555 1_555
H2A C5A 1_555 1_555
H1A C4A 1_555 1_555
O10A Ni2A 1_555 1_555
C32A C31 1_555 1_555
C39A C40 1_555 1_555
C34A C39A 1_555 1_555
C33A C32A 1_555 1_555
O11A Ni2A 1_555 1_555
O15A Ni2A 1_555 1_555
O16A Ni2A 1_555 1_555
C35A C34A 1_555 1_555
C36A C35A 1_555 1_555
C37A C36A 1_555 1_555
C38A C39A 1_555 1_555
H16A C38A 1_555 1_555
H15A C37A 1_555 1_555
H14A C36A 1_555 1_555
H13A C35A 1_555 1_555
C20A C11A 1_555 1_555
O6A C20A 1_555 1_555
C19A C20A 1_555 1_555
C14A C19A 1_555 1_555
C13A C12A 1_555 1_555
O5A Ni1A 1_555 1_555
O8A Ni1A 1_555 1_555
C22A C21A 1_555 1_555
C23A C22A 1_555 1_555
C24A C23A 1_555 1_555
C25A C24A 1_555 1_555
C26A C25A 1_555 1_555
C27A C26A 1_555 1_555
C28A C23A 1_555 1_555
C29A C30A 1_555 1_555
O9A C29A 1_555 1_555
H12A C27A 1_555 1_555
H11A C26A 1_555 1_555
H10A C25A 1_555 1_555
H9A C24A 1_555 1_555
O13A Ni1A 1_555 1_555
O14A Ni1A 1_555 1_555
C15A C14A 1_555 1_555
C16A C15A 1_555 1_555
C17A C16A 1_555 1_555
C18A C19A 1_555 1_555
H8A C18A 1_555 1_555
H7A C17A 1_555 1_555
H6A C16A 1_555 1_555
H5A C15A 1_555 1_555
C40A C39 1_555 1_555
O12A C40A 1_555 1_555
C7 C8 1_555 1_555
C9 C10 1_555 1_555
C12 C13 1_555 1_555
C18 C19 1_555 1_555
C19 C20 1_555 1_555
C21 C22 1_555 1_555
C27 C28 1_555 1_555
C29 C30 1_555 1_555
C32 C33 1_555 1_555
C38 C39 1_555 1_555
C31A C40A 1_555 1_555
O2A C2A 1_555 1_555
C7A C8A 1_555 1_555
C8A C9A 1_555 1_555
O10A C32A 1_555 1_555
C34A C33A 1_555 1_555
C33A O11A 1_555 1_555
C37A C38A 1_555 1_555
C14A C13A 1_555 1_555
C13A O5A 1_555 1_555
O8A C22A 1_555 1_555
C27A C28A 1_555 1_555
C28A C29A 1_555 1_555
C17A C18A 1_555 1_555

#END
