
#######################################################################
#
#                 Cambridge Crystallographic Data Centre
#                                CCDC 
#
#######################################################################
#
# If this CIF has been generated from an entry in the Cambridge 
# Structural Database, then it will include bibliographic, chemical, 
# crystal, experimental, refinement or atomic coordinate data resulting 
# from the CCDC's data processing and validation procedures.
#
#######################################################################

data_FAJRAM
_chemical_formula_moiety         
'C120 H126 N24 O15 Pd3 6+,6(N1 O3 1-),6(C2 H6 O1 S1),12(H2 O1)'
_chemical_name_systematic        
"bis(\m~3~-N,N',N''-tris(2-(Pyridin-2-yl)ethyl)benzene-1,3,5-tricarboxamide)-(\m~3~-tris(3-(pyridin-3-yl)propyl) benzene-1,3,5-tricarboxylate)-(\m~3~-N,N',N''-tris(3-(1H-imidazol-1-yl)propyl)benzene-1,3,5-tricarboxamide)-tri-palladium(ii) hexanitrate dimethyl sulfoxide solvate dodecahydrate"
_symmetry_cell_setting           triclinic
_symmetry_space_group_name_H-M   'P -1'
_symmetry_Int_Tables_number      2
_space_group_name_Hall           '-P 1'
loop_
_symmetry_equiv_pos_site_id
_symmetry_equiv_pos_as_xyz
1 x,y,z
2 -x,-y,-z
_cell_length_a                   17.0239(7)
_cell_length_b                   17.7485(7)
_cell_length_c                   29.3902(12)
_cell_angle_alpha                95.519(3)
_cell_angle_beta                 96.337(3)
_cell_angle_gamma                105.950(3)
_cell_volume                     8411.48
_exptl_crystal_colour            colorless
_exptl_crystal_description       BLOCK
_cell_formula_units_Z            2
loop_
_atom_site_label
_atom_site_type_symbol
_atom_site_fract_x
_atom_site_fract_y
_atom_site_fract_z
Pd1 Pd 0.85538(5) 1.07883(5) 0.11099(2)
Pd2 Pd 0.14402(5) 0.61537(5) 0.20319(3)
Pd3 Pd 0.85589(5) 0.73537(4) 0.49053(2)
O1 O 0.7379(4) 0.8418(4) 0.1543(2)
O2 O 0.4150(4) 0.6077(4) 0.2093(2)
O3 O 0.7624(5) 0.6829(5) 0.3309(2)
O4 O 0.7257(5) 1.0302(4) 0.2330(2)
O5 O 0.3663(5) 0.8389(5) 0.2699(3)
O6 O 0.6856(4) 0.8582(4) 0.4126(2)
O7 O 0.7358(5) 1.1386(5) 0.3446(2)
O8 O 0.7512(5) 1.1113(7) 0.4186(3)
O9 O 0.3433(6) 1.0504(5) 0.3089(3)
O10 O 0.4493(7) 1.1037(9) 0.2620(4)
O11 O 0.5179(5) 0.9039(5) 0.4575(4)
O12 O 0.3872(6) 0.9089(7) 0.4377(5)
O13 O 0.8393(5) 0.6802(6) 0.1754(4)
O14 O 0.4565(6) 0.5493(7) 0.0931(4)
O15 O 0.6019(6) 0.4592(7) 0.2813(3)
N1 N 0.9666(5) 1.0826(4) 0.1434(3)
N2 N 0.8254(5) 0.8718(5) 0.2170(3)
H1 H 0.8330 0.8660 0.2464
N3 N 0.1423(5) 0.6505(6) 0.1386(3)
N4 N 0.4330(5) 0.7045(5) 0.1633(3)
H2 H 0.4682 0.7463 0.1558
N5 N 0.7591(5) 0.6474(5) 0.5021(3)
N6 N 0.6283(5) 0.6447(5) 0.3487(2)
H3 H 0.5779 0.6480 0.3417
N7 N 0.7530(6) 1.0844(5) 0.0759(3)
N8 N 0.5994(5) 0.9937(5) 0.1917(3)
H4 H 0.5485 0.9623 0.1882
N9 N 0.1472(5) 0.5700(4) 0.2647(2)
N10 N 0.3966(5) 0.7635(5) 0.3253(3)
H5 H 0.4353 0.7553 0.3450
N11 N 0.9602(4) 0.8221(4) 0.4821(2)
N12 N 0.7886(5) 0.9165(5) 0.3798(3)
H6 H 0.8045 0.9351 0.3546
N13 N 0.8628(5) 1.1826(4) 0.1545(3)
N14 N 0.1116(6) 0.7099(5) 0.2291(3)
N15 N 0.8172(5) 0.8130(4) 0.5321(2)
N16 N 0.8571(5) 0.9899(5) 0.0702(3)
N17 N 0.8214(6) 0.8628(6) 0.0337(3)
N18 N 0.7725(7) 0.6647(7) 0.1024(4)
H7 H 0.7235 0.6455 0.0857
N19 N 0.1684(7) 0.5164(6) 0.1733(3)
N20 N 0.2143(7) 0.4197(7) 0.1592(4)
N21 N 0.4274(6) 0.4285(8) 0.1213(4)
H8 H 0.4429 0.3968 0.1393
N22 N 0.8909(5) 0.6524(4) 0.4504(3)
N23 N 0.9028(5) 0.5816(5) 0.3913(3)
N24 N 0.7314(7) 0.4809(6) 0.2761(3)
H9 H 0.7728 0.5015 0.2614
C1 C 1.0337(7) 1.1190(6) 0.1277(3)
H10 H 1.0253 1.1334 0.0976
C2 C 1.1107(8) 1.1386(8) 0.1469(5)
H11 H 1.1545 1.1723 0.1345
C3 C 1.1229(7) 1.1052(7) 0.1873(4)
H12 H 1.1770 1.1104 0.2020
C4 C 1.0538(7) 1.0642(6) 0.2055(4)
H13 H 1.0619 1.0456 0.2344
C5 C 0.9745(6) 1.0495(6) 0.1836(3)
C6 C 0.9001(6) 1.0059(5) 0.2023(3)
H14 H 0.9038 1.0261 0.2353
H15 H 0.8501 1.0138 0.1853
C7 C 0.8944(6) 0.9218(6) 0.1974(3)
H16 H 0.9467 0.9155 0.2125
H17 H 0.8887 0.9024 0.1642
C8 C 0.7518(6) 0.8349(6) 0.1922(3)
C9 C 0.6909(6) 0.7790(5) 0.2173(3)
C10 C 0.6077(6) 0.7554(6) 0.1985(3)
H18 H 0.5915 0.7738 0.1706
C11 C 0.0667(8) 0.6343(6) 0.1126(4)
H19 H 0.0188 0.6112 0.1259
C12 C 0.0571(9) 0.6509(9) 0.0656(5)
H20 H 0.0049 0.6349 0.0466
C13 C 0.1316(9) 0.6933(10) 0.0491(5)
H21 H 0.1327 0.7031 0.0179
C14 C 0.2045(9) 0.7199(9) 0.0838(4)
H22 H 0.2516 0.7570 0.0762
C15 C 0.2104(7) 0.6972(7) 0.1239(4)
C16 C 0.2934(7) 0.7203(7) 0.1547(4)
H23 H 0.3206 0.7773 0.1550
H24 H 0.2844 0.7112 0.1867
C17 C 0.3471(7) 0.6751(8) 0.1390(4)
H25 H 0.3480 0.6769 0.1055
H26 H 0.3238 0.6192 0.1435
C18 C 0.4561(7) 0.6652(7) 0.1977(3)
C19 C 0.5480(6) 0.7061(5) 0.2189(3)
C20 C 0.5726(6) 0.6814(5) 0.2600(3)
H27 H 0.5328 0.6459 0.2741
C21 C 0.7699(8) 0.6076(8) 0.5394(3)
H28 H 0.8244 0.6189 0.5553
C22 C 0.7133(8) 0.5571(8) 0.5542(4)
H29 H 0.7217 0.5398 0.5834
C23 C 0.6314(9) 0.5261(8) 0.5225(5)
H30 H 0.5885 0.4821 0.5278
C24 C 0.6247(6) 0.5647(7) 0.4875(4)
H31 H 0.5726 0.5497 0.4685
C25 C 0.6810(7) 0.6205(6) 0.4759(3)
C26 C 0.6714(6) 0.6654(5) 0.4348(3)
H32 H 0.7231 0.7076 0.4340
H33 H 0.6260 0.6898 0.4370
C27 C 0.6512(8) 0.6023(7) 0.3896(4)
H34 H 0.6999 0.5838 0.3849
H35 H 0.6046 0.5561 0.3924
C28 C 0.6865(7) 0.6752(6) 0.3251(3)
C29 C 0.6520(6) 0.7066(5) 0.2805(3)
C30 C 0.7090(6) 0.7536(5) 0.2602(3)
H36 H 0.7644 0.7707 0.2752
C31 C 0.7587(10) 1.1381(9) 0.0397(4)
H37 H 0.8119 1.1712 0.0372
C32 C 0.6132(11) 1.1117(17) 0.0194(6)
H38 H 0.5688 1.1280 0.0053
C33 C 0.6033(8) 1.0533(9) 0.0504(4)
H39 H 0.5504 1.0179 0.0511
C34 C 0.6745(7) 1.0485(7) 0.0805(4)
C35 C 0.6627(6) 1.0035(6) 0.1185(3)
H40 H 0.7167 0.9991 0.1323
H41 H 0.6266 0.9495 0.1069
C36 C 0.6219(7) 1.0432(7) 0.1576(3)
H42 H 0.6617 1.0938 0.1725
H43 H 0.5723 1.0552 0.1429
C37 C 0.6526(7) 0.9917(6) 0.2301(3)
C38 C 0.6205(6) 0.9425(5) 0.2663(3)
C39 C 0.5358(6) 0.9025(5) 0.2652(3)
H44 H 0.4963 0.9063 0.2407
C40 C 0.0735(7) 0.5167(7) 0.2708(4)
H45 H 0.0260 0.5078 0.2484
C41 C 0.0682(7) 0.4765(6) 0.3089(4)
H46 H 0.0175 0.4425 0.3145
C42 C 0.1422(11) 0.4889(11) 0.3389(6)
H47 H 0.1451 0.4560 0.3623
C43 C 0.2065(8) 0.5458(8) 0.3344(4)
H48 H 0.2527 0.5595 0.3580
C44 C 0.2114(7) 0.5882(7) 0.2963(3)
C45 C 0.2944(6) 0.6379(6) 0.2889(4)
H49 H 0.2935 0.6496 0.2566
H50 H 0.3369 0.6104 0.2956
C46 C 0.3131(7) 0.7163(7) 0.3234(3)
H51 H 0.2751 0.7469 0.3134
H52 H 0.3032 0.7030 0.3546
C47 C 0.4180(8) 0.8206(7) 0.2975(4)
C48 C 0.5121(6) 0.8600(5) 0.2984(3)
C49 C 0.5658(6) 0.8505(6) 0.3350(3)
H53 H 0.5468 0.8175 0.3575
C50 C 1.0278(6) 0.8335(6) 0.5126(3)
H54 H 1.0263 0.8017 0.5369
C51 C 1.0980(7) 0.8891(8) 0.5094(4)
H55 H 1.1456 0.8960 0.5314
C52 C 1.1015(8) 0.9357(7) 0.4752(4)
H56 H 1.1511 0.9754 0.4735
C53 C 1.0361(6) 0.9255(6) 0.4447(3)
H57 H 1.0378 0.9577 0.4206
C54 C 0.9628(7) 0.8661(6) 0.4479(3)
C55 C 0.8867(5) 0.8511(5) 0.4103(3)
H58 H 0.8452 0.8010 0.4130
H59 H 0.9037 0.8470 0.3792
C56 C 0.8484(6) 0.9227(6) 0.4171(3)
H60 H 0.8235 0.9216 0.4460
H61 H 0.8923 0.9734 0.4194
C57 C 0.7052(7) 0.8825(6) 0.3801(4)
C58 C 0.6507(6) 0.8927(5) 0.3372(3)
C59 C 0.6761(6) 0.9346(5) 0.3018(3)
H62 H 0.7333 0.9587 0.3020
C60 C 0.9017(8) 1.2485(9) 0.1416(5)
H63 H 0.9227 1.2510 0.1130
C61 C 0.9114(9) 1.3209(8) 0.1752(5)
H64 H 0.9377 1.3721 0.1681
C62 C 0.8839(10) 1.3124(9) 0.2127(6)
H65 H 0.8915 1.3584 0.2340
C63 C 0.8420(9) 1.2380(9) 0.2255(6)
C64 C 0.8365(6) 1.1766(6) 0.1928(4)
H66 H 0.8107 1.1249 0.1993
C65 C 0.8097(8) 1.2334(7) 0.2739(4)
H67 H 0.7491 1.2096 0.2696
H68 H 0.8230 1.2870 0.2913
C66 C 0.8548(8) 1.1796(8) 0.3015(4)
H69 H 0.8389 1.1254 0.2847
H70 H 0.9154 1.2018 0.3038
C67 C 0.8297(7) 1.1769(7) 0.3509(4)
H71 H 0.8586 1.1452 0.3686
H72 H 0.8443 1.2310 0.3678
C68 C 0.7034(8) 1.1082(7) 0.3813(4)
C69 C 0.6148(7) 1.0742(6) 0.3760(3)
C70 C 0.5671(7) 1.0914(7) 0.3398(4)
H73 H 0.5909 1.1250 0.3186
C71 C 0.0377(10) 0.7061(7) 0.2291(4)
H74 H 0.0001 0.6576 0.2144
C72 C 0.0006(8) 0.7611(8) 0.2469(4)
H75 H -0.0576 0.7518 0.2433
C73 C 0.0502(9) 0.8240(8) 0.2680(4)
H76 H 0.0289 0.8599 0.2854
C74 C 0.1354(8) 0.8434(7) 0.2672(5)
C75 C 0.1623(7) 0.7809(7) 0.2470(4)
H77 H 0.2197 0.7899 0.2462
C76 C 0.1928(10) 0.9185(9) 0.2885(5)
H78 H 0.2369 0.9089 0.3101
H79 H 0.1635 0.9494 0.3063
C77 C 0.2334(10) 0.9680(10) 0.2490(6)
H80 H 0.2707 0.9413 0.2351
H81 H 0.1890 0.9682 0.2243
C78 C 0.2838(11) 1.0565(10) 0.2688(7)
H82 H 0.3136 1.0832 0.2450
H83 H 0.2464 1.0866 0.2790
C79 C 0.4300(8) 1.0728(12) 0.2970(6)
C80 C 0.4811(8) 1.0571(8) 0.3357(5)
C81 C 0.4447(9) 1.0040(7) 0.3682(5)
H84 H 0.3867 0.9807 0.3652
C82 C 0.8562(8) 0.8407(8) 0.5766(4)
H85 H 0.9055 0.8278 0.5863
C83 C 0.8288(9) 0.8847(9) 0.6068(4)
H86 H 0.8587 0.9053 0.6367
C84 C 0.7528(8) 0.8993(8) 0.5923(5)
H87 H 0.7288 0.9277 0.6130
C85 C 0.7147(8) 0.8721(7) 0.5482(4)
C86 C 0.7502(7) 0.8318(7) 0.5186(4)
H88 H 0.7254 0.8170 0.4872
C87 C 0.6379(7) 0.8912(9) 0.5301(4)
H89 H 0.6531 0.9332 0.5101
H90 H 0.6162 0.9133 0.5566
C88 C 0.5690(8) 0.8236(8) 0.5029(5)
H91 H 0.5539 0.7803 0.5220
H92 H 0.5883 0.8030 0.4750
C89 C 0.4927(9) 0.8506(9) 0.4884(5)
H93 H 0.4459 0.8052 0.4733
H94 H 0.4756 0.8764 0.5154
C90 C 0.4593(11) 0.9342(9) 0.4332(6)
C91 C 0.4967(8) 0.9891(7) 0.4028(4)
C92 C 0.5826(8) 1.0289(8) 0.4050(4)
H95 H 0.6191 1.0213 0.4299
C93 C 0.8079(7) 0.9156(8) 0.0672(4)
H96 H 0.7669 0.9007 0.0867
C94 C 0.8935(7) 0.9878(7) 0.0303(4)
H97 H 0.9242 1.0325 0.0179
C95 C 0.8773(8) 0.9095(8) 0.0116(4)
H98 H 0.9019 0.8914 -0.0131
C96 C 0.7838(12) 0.7702(9) 0.0252(5)
H99 H 0.7332 0.7551 0.0399
H100 H 0.7681 0.7526 -0.0084
C97 C 0.8425(9) 0.7131(10) 0.0827(6)
H101 H 0.8634 0.7635 0.1037
H102 H 0.8862 0.6861 0.0861
C98 C 0.7846(14) 0.6508(10) 0.1454(7)
C99 C 0.7015(7) 0.5973(6) 0.1584(4)
C100 C 0.6232(8) 0.5702(7) 0.1287(5)
H103 H 0.6158 0.5821 0.0980
C101 C 0.2291(7) 0.4892(8) 0.1825(3)
H104 H 0.2779 0.5157 0.2033
C102 C 0.1109(7) 0.4653(14) 0.1394(6)
H105 H 0.0608 0.4717 0.1250
C103 C 0.1417(10) 0.4046(11) 0.1314(6)
H106 H 0.1168 0.3585 0.1097
C104 C 0.2621(9) 0.3696(10) 0.1570(5)
H107 H 0.2316 0.3196 0.1673
H108 H 0.3125 0.3929 0.1798
C105 C 0.2883(11) 0.3492(11) 0.1124(6)
H109 H 0.3172 0.3085 0.1168
H110 H 0.2375 0.3235 0.0904
C106 C 0.3345(10) 0.4021(10) 0.0923(5)
H111 H 0.3128 0.4484 0.0915
H112 H 0.3356 0.3805 0.0601
C107 C 0.4798(12) 0.4985(10) 0.1178(6)
C108 C 0.5541(7) 0.5214(7) 0.1507(4)
C109 C 0.5716(7) 0.4938(6) 0.1891(4)
H113 H 0.5288 0.4549 0.1990
C110 C 0.8769(6) 0.6403(5) 0.4061(3)
H114 H 0.8514 0.6698 0.3871
C111 C 0.9333(7) 0.6022(7) 0.4669(4)
H115 H 0.9498 0.5976 0.4982
C112 C 0.9457(9) 0.5616(8) 0.4291(5)
H116 H 0.9779 0.5256 0.4281
C113 C 0.8983(9) 0.5452(9) 0.3376(4)
H117 H 0.8755 0.5773 0.3169
H118 H 0.9546 0.5477 0.3309
C114 C 0.8427(11) 0.4575(8) 0.3280(4)
H119 H 0.8572 0.4309 0.3545
H120 H 0.8592 0.4321 0.3006
C115 C 0.7453(11) 0.4378(12) 0.3196(6)
H121 H 0.7185 0.3801 0.3128
H122 H 0.7243 0.4594 0.3465
C116 C 0.6562(8) 0.4853(7) 0.2622(4)
C117 C 0.6474(8) 0.5170(7) 0.2160(4)
C118 C 0.7140(7) 0.5697(6) 0.2014(4)
H123 H 0.7667 0.5867 0.2199
C119 C 0.6982(10) 1.1432(10) 0.0119(4)
H124 H 0.7090 1.1686 -0.0147
C120 C 0.8403(12) 0.7315(10) 0.0431(6)
H125 H 0.8313 0.6823 0.0218
H126 H 0.8962 0.7655 0.0408
loop_
_geom_bond_atom_site_label_1
_geom_bond_atom_site_label_2
_geom_bond_site_symmetry_1
_geom_bond_site_symmetry_2
Pd1 N1 1_555 1_555
Pd2 N3 1_555 1_555
Pd3 N5 1_555 1_555
O1 C8 1_555 1_555
O2 C18 1_555 1_555
O3 C28 1_555 1_555
O4 C37 1_555 1_555
O5 C47 1_555 1_555
O6 C57 1_555 1_555
O7 C67 1_555 1_555
O8 C68 1_555 1_555
O9 C78 1_555 1_555
O10 C79 1_555 1_555
O11 C89 1_555 1_555
O12 C90 1_555 1_555
O13 C98 1_555 1_555
O14 C107 1_555 1_555
O15 C116 1_555 1_555
N1 C1 1_555 1_555
N2 H1 1_555 1_555
N3 C11 1_555 1_555
N4 H2 1_555 1_555
N5 C21 1_555 1_555
N6 H3 1_555 1_555
N7 Pd1 1_555 1_555
N8 H4 1_555 1_555
N9 Pd2 1_555 1_555
N10 H5 1_555 1_555
N11 Pd3 1_555 1_555
N12 H6 1_555 1_555
N13 Pd1 1_555 1_555
N14 Pd2 1_555 1_555
N15 Pd3 1_555 1_555
N16 Pd1 1_555 1_555
N17 C93 1_555 1_555
N18 H7 1_555 1_555
N19 Pd2 1_555 1_555
N20 C101 1_555 1_555
N21 H8 1_555 1_555
N22 Pd3 1_555 1_555
N23 C110 1_555 1_555
N24 H9 1_555 1_555
C1 H10 1_555 1_555
C2 C1 1_555 1_555
H11 C2 1_555 1_555
C3 C2 1_555 1_555
H12 C3 1_555 1_555
C4 C3 1_555 1_555
H13 C4 1_555 1_555
C5 N1 1_555 1_555
C6 C5 1_555 1_555
H14 C6 1_555 1_555
H15 C6 1_555 1_555
C7 N2 1_555 1_555
H16 C7 1_555 1_555
H17 C7 1_555 1_555
C8 N2 1_555 1_555
C9 C8 1_555 1_555
C10 C9 1_555 1_555
H18 C10 1_555 1_555
C11 H19 1_555 1_555
C12 C11 1_555 1_555
H20 C12 1_555 1_555
C13 C12 1_555 1_555
H21 C13 1_555 1_555
C14 C13 1_555 1_555
H22 C14 1_555 1_555
C15 N3 1_555 1_555
C16 C15 1_555 1_555
H23 C16 1_555 1_555
H24 C16 1_555 1_555
C17 N4 1_555 1_555
H25 C17 1_555 1_555
H26 C17 1_555 1_555
C18 N4 1_555 1_555
C19 C10 1_555 1_555
C20 C19 1_555 1_555
H27 C20 1_555 1_555
C21 H28 1_555 1_555
C22 C21 1_555 1_555
H29 C22 1_555 1_555
C23 C22 1_555 1_555
H30 C23 1_555 1_555
C24 C23 1_555 1_555
H31 C24 1_555 1_555
C25 N5 1_555 1_555
C26 C25 1_555 1_555
H32 C26 1_555 1_555
H33 C26 1_555 1_555
C27 N6 1_555 1_555
H34 C27 1_555 1_555
H35 C27 1_555 1_555
C28 N6 1_555 1_555
C29 C20 1_555 1_555
C30 C9 1_555 1_555
H36 C30 1_555 1_555
C31 N7 1_555 1_555
H37 C31 1_555 1_555
C32 H38 1_555 1_555
C33 C32 1_555 1_555
H39 C33 1_555 1_555
C34 N7 1_555 1_555
C35 C34 1_555 1_555
H40 C35 1_555 1_555
H41 C35 1_555 1_555
C36 N8 1_555 1_555
H42 C36 1_555 1_555
H43 C36 1_555 1_555
C37 N8 1_555 1_555
C38 C37 1_555 1_555
C39 C38 1_555 1_555
H44 C39 1_555 1_555
C40 N9 1_555 1_555
H45 C40 1_555 1_555
C41 C40 1_555 1_555
H46 C41 1_555 1_555
C42 C41 1_555 1_555
H47 C42 1_555 1_555
C43 C42 1_555 1_555
H48 C43 1_555 1_555
C44 N9 1_555 1_555
C45 C44 1_555 1_555
H49 C45 1_555 1_555
H50 C45 1_555 1_555
C46 N10 1_555 1_555
H51 C46 1_555 1_555
H52 C46 1_555 1_555
C47 N10 1_555 1_555
C48 C39 1_555 1_555
C49 C48 1_555 1_555
H53 C49 1_555 1_555
C50 N11 1_555 1_555
H54 C50 1_555 1_555
C51 C50 1_555 1_555
H55 C51 1_555 1_555
C52 C51 1_555 1_555
H56 C52 1_555 1_555
C53 C52 1_555 1_555
H57 C53 1_555 1_555
C54 N11 1_555 1_555
C55 C54 1_555 1_555
H58 C55 1_555 1_555
H59 C55 1_555 1_555
C56 N12 1_555 1_555
H60 C56 1_555 1_555
H61 C56 1_555 1_555
C57 N12 1_555 1_555
C58 C49 1_555 1_555
C59 C38 1_555 1_555
H62 C59 1_555 1_555
C60 N13 1_555 1_555
H63 C60 1_555 1_555
C61 C60 1_555 1_555
H64 C61 1_555 1_555
C62 C61 1_555 1_555
H65 C62 1_555 1_555
C63 C62 1_555 1_555
C64 N13 1_555 1_555
H66 C64 1_555 1_555
C65 C63 1_555 1_555
H67 C65 1_555 1_555
H68 C65 1_555 1_555
C66 C65 1_555 1_555
H69 C66 1_555 1_555
H70 C66 1_555 1_555
C67 C66 1_555 1_555
H71 C67 1_555 1_555
H72 C67 1_555 1_555
C68 O7 1_555 1_555
C69 C68 1_555 1_555
C70 C69 1_555 1_555
H73 C70 1_555 1_555
C71 N14 1_555 1_555
H74 C71 1_555 1_555
C72 C71 1_555 1_555
H75 C72 1_555 1_555
C73 C72 1_555 1_555
H76 C73 1_555 1_555
C74 C73 1_555 1_555
C75 N14 1_555 1_555
H77 C75 1_555 1_555
C76 C74 1_555 1_555
H78 C76 1_555 1_555
H79 C76 1_555 1_555
C77 C76 1_555 1_555
H80 C77 1_555 1_555
H81 C77 1_555 1_555
C78 C77 1_555 1_555
H82 C78 1_555 1_555
H83 C78 1_555 1_555
C79 O9 1_555 1_555
C80 C70 1_555 1_555
C81 C80 1_555 1_555
H84 C81 1_555 1_555
C82 N15 1_555 1_555
H85 C82 1_555 1_555
C83 C82 1_555 1_555
H86 C83 1_555 1_555
C84 C83 1_555 1_555
H87 C84 1_555 1_555
C85 C84 1_555 1_555
C86 N15 1_555 1_555
H88 C86 1_555 1_555
C87 C85 1_555 1_555
H89 C87 1_555 1_555
H90 C87 1_555 1_555
C88 C87 1_555 1_555
H91 C88 1_555 1_555
H92 C88 1_555 1_555
C89 C88 1_555 1_555
H93 C89 1_555 1_555
H94 C89 1_555 1_555
C90 O11 1_555 1_555
C91 C81 1_555 1_555
C92 C69 1_555 1_555
H95 C92 1_555 1_555
C93 N16 1_555 1_555
H96 C93 1_555 1_555
C94 N16 1_555 1_555
H97 C94 1_555 1_555
C95 N17 1_555 1_555
H98 C95 1_555 1_555
C96 N17 1_555 1_555
H99 C96 1_555 1_555
H100 C96 1_555 1_555
C97 N18 1_555 1_555
H101 C97 1_555 1_555
H102 C97 1_555 1_555
C98 N18 1_555 1_555
C99 C98 1_555 1_555
C100 C99 1_555 1_555
H103 C100 1_555 1_555
C101 N19 1_555 1_555
H104 C101 1_555 1_555
C102 N19 1_555 1_555
H105 C102 1_555 1_555
C103 N20 1_555 1_555
H106 C103 1_555 1_555
C104 N20 1_555 1_555
H107 C104 1_555 1_555
H108 C104 1_555 1_555
C105 C104 1_555 1_555
H109 C105 1_555 1_555
H110 C105 1_555 1_555
C106 N21 1_555 1_555
H111 C106 1_555 1_555
H112 C106 1_555 1_555
C107 N21 1_555 1_555
C108 C100 1_555 1_555
C109 C108 1_555 1_555
H113 C109 1_555 1_555
C110 N22 1_555 1_555
H114 C110 1_555 1_555
C111 N22 1_555 1_555
H115 C111 1_555 1_555
C112 N23 1_555 1_555
H116 C112 1_555 1_555
C113 N23 1_555 1_555
H117 C113 1_555 1_555
H118 C113 1_555 1_555
C114 C113 1_555 1_555
H119 C114 1_555 1_555
H120 C114 1_555 1_555
C115 N24 1_555 1_555
H121 C115 1_555 1_555
H122 C115 1_555 1_555
C116 N24 1_555 1_555
C117 C109 1_555 1_555
C118 C99 1_555 1_555
H123 C118 1_555 1_555
C119 C31 1_555 1_555
H124 C119 1_555 1_555
C120 C96 1_555 1_555
H125 C120 1_555 1_555
H126 C120 1_555 1_555
C4 C5 1_555 1_555
C6 C7 1_555 1_555
C14 C15 1_555 1_555
C16 C17 1_555 1_555
C18 C19 1_555 1_555
C24 C25 1_555 1_555
C26 C27 1_555 1_555
C28 C29 1_555 1_555
C29 C30 1_555 1_555
C32 C119 1_555 1_555
C33 C34 1_555 1_555
C35 C36 1_555 1_555
C43 C44 1_555 1_555
C45 C46 1_555 1_555
C47 C48 1_555 1_555
C53 C54 1_555 1_555
C55 C56 1_555 1_555
C57 C58 1_555 1_555
C58 C59 1_555 1_555
C63 C64 1_555 1_555
C74 C75 1_555 1_555
C79 C80 1_555 1_555
C85 C86 1_555 1_555
C90 C91 1_555 1_555
C91 C92 1_555 1_555
C94 C95 1_555 1_555
C97 C120 1_555 1_555
C102 C103 1_555 1_555
C105 C106 1_555 1_555
C107 C108 1_555 1_555
C111 C112 1_555 1_555
C114 C115 1_555 1_555
C116 C117 1_555 1_555
C117 C118 1_555 1_555

#END
