
#######################################################################
#
#                 Cambridge Crystallographic Data Centre
#                                CCDC 
#
#######################################################################
#
# If this CIF has been generated from an entry in the Cambridge 
# Structural Database, then it will include bibliographic, chemical, 
# crystal, experimental, refinement or atomic coordinate data resulting 
# from the CCDC's data processing and validation procedures.
#
#######################################################################

data_FARNIY
_chemical_formula_moiety         'C40 H24 N4 O6 Pd2,2(C2 H6 O1 S1)'
_chemical_name_systematic        
'(\m-2,23-dioxa-9,16,30,37-tetraazaheptacyclo[37.3.1.1^3,7^.1^18,22^.1^24,28^.0^10,15^.0^31,36^]hexatetraconta-1(43),3(46),4,6,8,10,12,14,16,18(45),19,21,24(44),25,27,29,31,33,35,37,39,41-docosaene-43,44,45,46-tetrolato)-di-palladium(ii) dimethyl sulfoxide solvate'
_symmetry_cell_setting           monoclinic
_symmetry_space_group_name_H-M   'P 21/n'
_symmetry_Int_Tables_number      14
_space_group_name_Hall           '-P 2yn'
loop_
_symmetry_equiv_pos_site_id
_symmetry_equiv_pos_as_xyz
1 x,y,z
2 1/2-x,1/2+y,1/2-z
3 -x,-y,-z
4 1/2+x,1/2-y,1/2+z
_cell_length_a                   10.7324(6)
_cell_length_b                   15.3932(7)
_cell_length_c                   11.6479(7)
_cell_angle_alpha                90
_cell_angle_beta                 96.9893(17)
_cell_angle_gamma                90
_cell_volume                     1910
_exptl_crystal_colour            orange
_exptl_crystal_description       prismatic
_cell_formula_units_Z            2
_exptl_crystal_recrystallization_method 'dimethyl sulfoxide'
loop_
_atom_site_label
_atom_site_type_symbol
_atom_site_fract_x
_atom_site_fract_y
_atom_site_fract_z
Pd1 Pd 0.19732(3) 0.106086(19) 0.48134(3)
C1 C 0.5463(3) 0.2239(3) 0.5963(4)
C2 C 0.4133(4) 0.2112(3) 0.5730(3)
C3 C 0.3381(4) 0.2887(3) 0.5679(4)
C4 C 0.3952(4) 0.3718(3) 0.5831(4)
H1 H 0.3439 0.4219 0.5846
C5 C 0.5231(4) 0.3806(3) 0.5956(4)
H2 H 0.5605 0.4366 0.6000
C6 C 0.5983(4) 0.3054(3) 0.6016(4)
H3 H 0.6870 0.3113 0.6097
O1 O 0.3712(2) 0.13206(18) 0.5559(2)
C7 C 0.2053(4) 0.2894(3) 0.5394(4)
H4 H 0.1637 0.3428 0.5495
N1 N 0.1353(3) 0.2241(2) 0.5010(3)
C8 C 0.0047(3) 0.2337(3) 0.4583(3)
C9 C -0.0613(4) 0.3115(3) 0.4616(4)
H5 H -0.0222 0.3613 0.4981
C10 C -0.1847(4) 0.3149(3) 0.4110(4)
H6 H -0.2302 0.3679 0.4115
C11 C -0.2430(4) 0.2412(3) 0.3592(4)
H7 H -0.3280 0.2443 0.3253
C12 C -0.1782(4) 0.1642(3) 0.3569(4)
H8 H -0.2182 0.1139 0.3223
C13 C -0.0528(3) 0.1607(3) 0.4063(3)
N2 N 0.0266(3) 0.0859(2) 0.4038(3)
C14 C -0.0084(3) 0.0157(3) 0.3463(3)
H9 H -0.0938 0.0128 0.3134
C15 C 0.0690(3) -0.0578(3) 0.3278(3)
C16 C 0.1948(3) -0.0685(2) 0.3805(3)
C17 C 0.2615(3) -0.1422(3) 0.3457(3)
C18 C 0.2109(4) -0.1962(3) 0.2580(4)
H10 H 0.2607 -0.2410 0.2310
C19 C 0.0853(4) -0.1853(3) 0.2079(4)
H11 H 0.0490 -0.2242 0.1499
C20 C 0.0167(4) -0.1180(3) 0.2441(4)
H12 H -0.0685 -0.1116 0.2121
O2 O 0.2541(2) -0.01543(17) 0.4571(2)
O3 O 0.3845(2) -0.14714(18) 0.3998(3)
C1B C 0.4537(3) -0.2239(3) 0.4037(4)
C2B C 0.5867(4) -0.2112(3) 0.4270(3)
C3B C 0.6619(4) -0.2887(3) 0.4321(4)
C4B C 0.6048(4) -0.3718(3) 0.4169(4)
H1B H 0.6561 -0.4219 0.4154
C5B C 0.4769(4) -0.3806(3) 0.4044(4)
H2B H 0.4395 -0.4366 0.4000
C6B C 0.4017(4) -0.3054(3) 0.3984(4)
H3B H 0.3130 -0.3113 0.3903
O1B O 0.6288(2) -0.13206(18) 0.4441(2)
C7B C 0.7947(4) -0.2894(3) 0.4606(4)
H4B H 0.8363 -0.3428 0.4505
N1B N 0.8647(3) -0.2241(2) 0.4990(3)
C8B C 0.9953(3) -0.2337(3) 0.5417(3)
C9B C 1.0613(4) -0.3115(3) 0.5384(4)
H5B H 1.0222 -0.3613 0.5019
C10B C 1.1847(4) -0.3149(3) 0.5890(4)
H6B H 1.2302 -0.3679 0.5885
C11B C 1.2430(4) -0.2412(3) 0.6408(4)
H7B H 1.3280 -0.2443 0.6747
C12B C 1.1782(4) -0.1642(3) 0.6431(4)
H8B H 1.2182 -0.1139 0.6777
C13B C 1.0528(3) -0.1607(3) 0.5937(3)
N2B N 0.9734(3) -0.0859(2) 0.5962(3)
C14B C 1.0084(3) -0.0157(3) 0.6537(3)
H9B H 1.0938 -0.0128 0.6866
C15B C 0.9310(3) 0.0578(3) 0.6722(3)
C16B C 0.8052(3) 0.0685(2) 0.6195(3)
C17B C 0.7385(3) 0.1422(3) 0.6543(3)
C18B C 0.7891(4) 0.1962(3) 0.7420(4)
H10B H 0.7393 0.2410 0.7690
C19B C 0.9147(4) 0.1853(3) 0.7921(4)
H11B H 0.9510 0.2242 0.8501
C20B C 0.9833(4) 0.1180(3) 0.7559(4)
H12B H 1.0685 0.1116 0.7879
O2B O 0.7459(2) 0.01543(17) 0.5429(2)
O3B O 0.6155(2) 0.14714(18) 0.6002(3)
Pd1B Pd 0.80268(3) -0.106086(19) 0.51866(3)
S1 S 0.47789(10) 0.01189(7) 0.78313(10)
O4 O 0.3843(3) -0.0340(2) 0.8494(3)
C21 C 0.4896(4) -0.0502(3) 0.6567(4)
H13 H 0.5026 -0.1114 0.6777
H14 H 0.5607 -0.0293 0.6190
H15 H 0.4120 -0.0441 0.6035
C22 C 0.6304(4) -0.0140(4) 0.8575(4)
H16 H 0.6352 0.0052 0.9381
H17 H 0.6951 0.0156 0.8196
H18 H 0.6438 -0.0769 0.8552
loop_
_geom_bond_atom_site_label_1
_geom_bond_atom_site_label_2
_geom_bond_site_symmetry_1
_geom_bond_site_symmetry_2
Pd1 O1 1_555 1_555
C1 C2 1_555 1_555
C2 C3 1_555 1_555
C3 C4 1_555 1_555
C4 H1 1_555 1_555
C5 C4 1_555 1_555
H2 C5 1_555 1_555
C6 C1 1_555 1_555
H3 C6 1_555 1_555
O1 C2 1_555 1_555
C7 C3 1_555 1_555
H4 C7 1_555 1_555
N1 Pd1 1_555 1_555
C8 N1 1_555 1_555
C9 C8 1_555 1_555
H5 C9 1_555 1_555
C10 C9 1_555 1_555
H6 C10 1_555 1_555
C11 C10 1_555 1_555
H7 C11 1_555 1_555
C12 C11 1_555 1_555
H8 C12 1_555 1_555
C13 C8 1_555 1_555
N2 Pd1 1_555 1_555
C14 N2 1_555 1_555
H9 C14 1_555 1_555
C15 C14 1_555 1_555
C16 C15 1_555 1_555
C17 C16 1_555 1_555
C18 C17 1_555 1_555
H10 C18 1_555 1_555
C19 C18 1_555 1_555
H11 C19 1_555 1_555
C20 C15 1_555 1_555
H12 C20 1_555 1_555
O2 Pd1 1_555 1_555
O3 C17 1_555 1_555
S1 O4 1_555 1_555
C21 S1 1_555 1_555
H13 C21 1_555 1_555
H14 C21 1_555 1_555
H15 C21 1_555 1_555
C22 S1 1_555 1_555
H16 C22 1_555 1_555
H17 C22 1_555 1_555
H18 C22 1_555 1_555
C1B O3 1_555 1_555
C2B C1B 1_555 1_555
C3B C2B 1_555 1_555
C4B C3B 1_555 1_555
H1B C4B 1_555 1_555
C5B C4B 1_555 1_555
H2B C5B 1_555 1_555
C6B C1B 1_555 1_555
H3B C6B 1_555 1_555
O1B C2B 1_555 1_555
C7B C3B 1_555 1_555
H4B C7B 1_555 1_555
N1B C7B 1_555 1_555
C8B N1B 1_555 1_555
C9B C8B 1_555 1_555
H5B C9B 1_555 1_555
C10B C9B 1_555 1_555
H6B C10B 1_555 1_555
C11B C10B 1_555 1_555
H7B C11B 1_555 1_555
C12B C11B 1_555 1_555
H8B C12B 1_555 1_555
C13B C8B 1_555 1_555
N2B C13B 1_555 1_555
C14B N2B 1_555 1_555
H9B C14B 1_555 1_555
C15B C14B 1_555 1_555
C16B C15B 1_555 1_555
C17B C16B 1_555 1_555
C18B C17B 1_555 1_555
H10B C18B 1_555 1_555
C19B C18B 1_555 1_555
H11B C19B 1_555 1_555
C20B C15B 1_555 1_555
H12B C20B 1_555 1_555
O2B C16B 1_555 1_555
O3B C1 1_555 1_555
Pd1B O1B 1_555 1_555
C5 C6 1_555 1_555
C7 N1 1_555 1_555
C12 C13 1_555 1_555
C13 N2 1_555 1_555
C16 O2 1_555 1_555
C19 C20 1_555 1_555
C5B C6B 1_555 1_555
N1B Pd1B 1_555 1_555
C12B C13B 1_555 1_555
N2B Pd1B 1_555 1_555
C17B O3B 1_555 1_555
C19B C20B 1_555 1_555
O2B Pd1B 1_555 1_555

#END
