
#######################################################################
#
#                 Cambridge Crystallographic Data Centre
#                                CCDC 
#
#######################################################################
#
# If this CIF has been generated from an entry in the Cambridge 
# Structural Database, then it will include bibliographic, chemical, 
# crystal, experimental, refinement or atomic coordinate data resulting 
# from the CCDC's data processing and validation procedures.
#
#######################################################################

data_FATPAS
_chemical_formula_moiety         
'C96 H92 B8 Cu6 Fe8 N72 O6 4+,4(Cl1 O4 1-),2(C4 H10 O1),12(H2 O1)'
_chemical_name_systematic        
'tetracosakis(\m~2~-Cyano)-hexa-aqua-octakis(hydrogen tris(pyrazolyl)borato)-hexa-copper(ii)-octa-iron(iii) tetraperchlorate diethyl ether solvate dodecahydrate'
_symmetry_cell_setting           orthorhombic
_symmetry_space_group_name_H-M   'I m m m'
_symmetry_Int_Tables_number      71
_space_group_name_Hall           '-I 2 2'
loop_
_symmetry_equiv_pos_site_id
_symmetry_equiv_pos_as_xyz
1 x,y,z
2 1/2+x,1/2+y,1/2+z
3 -x,-y,z
4 x,-y,-z
5 -x,y,-z
6 1/2-x,1/2-y,1/2+z
7 1/2+x,1/2-y,1/2-z
8 1/2-x,1/2+y,1/2-z
9 -x,-y,-z
10 1/2-x,1/2-y,1/2-z
11 x,y,-z
12 -x,y,z
13 x,-y,z
14 1/2+x,1/2+y,1/2-z
15 1/2-x,1/2+y,1/2+z
16 1/2+x,1/2-y,1/2+z
_cell_length_a                   16.2010(16)
_cell_length_b                   35.317(4)
_cell_length_c                   17.1566(17)
_cell_angle_alpha                90
_cell_angle_beta                 90
_cell_angle_gamma                90
_cell_volume                     9816.5
_exptl_crystal_colour            brown
_exptl_crystal_description       block
_cell_formula_units_Z            2
loop_
_atom_site_label
_atom_site_type_symbol
_atom_site_fract_x
_atom_site_fract_y
_atom_site_fract_z
Fe1 Fe 0.28841(6) 0.90255(3) 0.70225(5)
Cu1 Cu 0.5000 0.87142(5) 0.5000
Cu2 Cu 0.23500(10) 1.0000 0.5000
Cu3 Cu 0.5000 1.0000 0.77041(9)
C1 C 0.3644(5) 0.93869(19) 0.7385(4)
C2 C 0.3690(5) 0.88686(18) 0.6264(4)
C3 C 0.2540(5) 0.9394(2) 0.6251(5)
O1 O 0.5000 0.8107(2) 0.5000
H2 H 0.5000 0.8025 0.5466
O2 O 0.0977(6) 1.0000 0.5000
H3 H 0.0800 1.0000 0.4534
O3 O 0.5000 1.0000 0.8933(5)
N1 N 0.4162(3) 0.96019(15) 0.7551(3)
N2 N 0.4159(4) 0.88064(15) 0.5794(3)
N3 N 0.2408(3) 0.96033(16) 0.5806(4)
B1 B 0.192(2) 0.8463(15) 0.810(3)
H7 H 0.1621 0.8285 0.8434
N4 N 0.172(4) 0.8904(13) 0.816(5)
N5 N 0.209(3) 0.9238(15) 0.768(3)
C4 C 0.1695(10) 0.9564(4) 0.7768(9)
H8 H 0.1835 0.9790 0.7526
C5 C 0.1027(10) 0.9511(4) 0.8291(9)
H9 H 0.0663 0.9696 0.8468
C6 C 0.1027(17) 0.9130(8) 0.8485(13)
H10 H 0.0619 0.9023 0.8796
N6 N 0.290(2) 0.8505(12) 0.820(3)
N7 N 0.3417(17) 0.8755(7) 0.7724(17)
C7 C 0.4252(11) 0.8706(5) 0.7998(9)
H11 H 0.4718 0.8831 0.7817
C8 C 0.4227(9) 0.8427(4) 0.8603(9)
H12 H 0.4677 0.8339 0.8888
C9 C 0.3403(13) 0.8308(6) 0.8691(12)
H13 H 0.3226 0.8122 0.9036
N8 N 0.177(5) 0.846(2) 0.720(3)
N9 N 0.224(3) 0.8632(12) 0.659(3)
C10 C 0.2128(11) 0.8446(5) 0.5917(10)
H14 H 0.2360 0.8514 0.5441
C11 C 0.1614(11) 0.8136(5) 0.6035(8)
H15 H 0.1452 0.7959 0.5663
C12 C 0.138(2) 0.8142(10) 0.685(2)
H16 H 0.1034 0.7970 0.7097
Fe1K Fe 0.71159(6) 0.90255(3) 0.70225(5)
Fe1J Fe 0.28841(6) 0.90255(3) 0.29775(5)
Fe1D Fe 0.71159(6) 0.90255(3) 0.29775(5)
Fe1H Fe 0.71159(6) 1.09745(3) 0.29775(5)
Fe1C Fe 0.28841(6) 1.09745(3) 0.29775(5)
Fe1L Fe 0.28841(6) 1.09745(3) 0.70225(5)
Fe1B Fe 0.71159(6) 1.09745(3) 0.70225(5)
Cu1L Cu 0.5000 1.12858(5) 0.5000
Cu2K Cu 0.76500(10) 1.0000 0.5000
Cu3J Cu 0.5000 1.0000 0.22959(9)
C1K C 0.6356(5) 0.93869(19) 0.7385(4)
C1J C 0.3644(5) 0.93869(19) 0.2615(4)
C1D C 0.6356(5) 0.93869(19) 0.2615(4)
C1H C 0.6356(5) 1.06131(19) 0.2615(4)
C1C C 0.3644(5) 1.06131(19) 0.2615(4)
C1L C 0.3644(5) 1.06131(19) 0.7385(4)
C1B C 0.6356(5) 1.06131(19) 0.7385(4)
C2K C 0.6310(5) 0.88686(18) 0.6264(4)
C2D C 0.6310(5) 0.88686(18) 0.3736(4)
C2J C 0.3690(5) 0.88686(18) 0.3736(4)
C2C C 0.3690(5) 1.11314(18) 0.3736(4)
C2L C 0.3690(5) 1.11314(18) 0.6264(4)
C2B C 0.6310(5) 1.11314(18) 0.6264(4)
C2H C 0.6310(5) 1.11314(18) 0.3736(4)
C3J C 0.2540(5) 0.9394(2) 0.3749(5)
C3D C 0.7460(5) 0.9394(2) 0.3749(5)
C3K C 0.7460(5) 0.9394(2) 0.6251(5)
C3H C 0.7460(5) 1.0606(2) 0.3749(5)
C3B C 0.7460(5) 1.0606(2) 0.6251(5)
C3L C 0.2540(5) 1.0606(2) 0.6251(5)
C3C C 0.2540(5) 1.0606(2) 0.3749(5)
O1L O 0.5000 1.1893(2) 0.5000
H2J H 0.5000 0.8025 0.4534
H2H H 0.5000 1.1975 0.4534
H2L H 0.5000 1.1975 0.5466
O2K O 0.9023(6) 1.0000 0.5000
H3J H 0.0800 1.0000 0.5466
H3H H 0.9200 1.0000 0.5466
H3K H 0.9200 1.0000 0.4534
O3J O 0.5000 1.0000 0.1067(5)
N1K N 0.5838(3) 0.96019(15) 0.7551(3)
N1J N 0.4162(3) 0.96019(15) 0.2449(3)
N1D N 0.5838(3) 0.96019(15) 0.2449(3)
N1H N 0.5838(3) 1.03981(15) 0.2449(3)
N1C N 0.4162(3) 1.03981(15) 0.2449(3)
N1L N 0.4162(3) 1.03981(15) 0.7551(3)
N1B N 0.5838(3) 1.03981(15) 0.7551(3)
N2K N 0.5841(4) 0.88064(15) 0.5794(3)
N2D N 0.5841(4) 0.88064(15) 0.4206(3)
N2J N 0.4159(4) 0.88064(15) 0.4206(3)
N2C N 0.4159(4) 1.11936(15) 0.4206(3)
N2L N 0.4159(4) 1.11936(15) 0.5794(3)
N2B N 0.5841(4) 1.11936(15) 0.5794(3)
N2H N 0.5841(4) 1.11936(15) 0.4206(3)
N3J N 0.2408(3) 0.96033(16) 0.4194(4)
N3D N 0.7592(3) 0.96033(16) 0.4194(4)
N3K N 0.7592(3) 0.96033(16) 0.5806(4)
N3H N 0.7592(3) 1.03967(16) 0.4194(4)
N3B N 0.7592(3) 1.03967(16) 0.5806(4)
N3L N 0.2408(3) 1.03967(16) 0.5806(4)
N3C N 0.2408(3) 1.03967(16) 0.4194(4)
B1J B 0.192(2) 0.8463(15) 0.190(3)
B1K B 0.808(2) 0.8463(15) 0.810(3)
B1H B 0.808(2) 1.1537(15) 0.190(3)
B1B B 0.808(2) 1.1537(15) 0.810(3)
B1C B 0.192(2) 1.1537(15) 0.190(3)
B1L B 0.192(2) 1.1537(15) 0.810(3)
B1D B 0.808(2) 0.8463(15) 0.190(3)
H7J H 0.1621 0.8285 0.1566
H7K H 0.8379 0.8285 0.8434
H7H H 0.8379 1.1715 0.1566
H7B H 0.8379 1.1715 0.8434
H7C H 0.1621 1.1715 0.1566
H7L H 0.1621 1.1715 0.8434
H7D H 0.8379 0.8285 0.1566
N4J N 0.172(4) 0.8904(13) 0.184(5)
N4K N 0.828(4) 0.8904(13) 0.816(5)
N4H N 0.828(4) 1.1096(13) 0.184(5)
N4B N 0.828(4) 1.1096(13) 0.816(5)
N4C N 0.172(4) 1.1096(13) 0.184(5)
N4L N 0.172(4) 1.1096(13) 0.816(5)
N4D N 0.828(4) 0.8904(13) 0.184(5)
N5J N 0.209(3) 0.9238(15) 0.232(3)
N5K N 0.791(3) 0.9238(15) 0.768(3)
N5H N 0.791(3) 1.0762(15) 0.232(3)
N5B N 0.791(3) 1.0762(15) 0.768(3)
N5C N 0.209(3) 1.0762(15) 0.232(3)
N5L N 0.209(3) 1.0762(15) 0.768(3)
N5D N 0.791(3) 0.9238(15) 0.232(3)
C4J C 0.1695(10) 0.9564(4) 0.2232(9)
C4K C 0.8305(10) 0.9564(4) 0.7768(9)
C4H C 0.8305(10) 1.0436(4) 0.2232(9)
C4B C 0.8305(10) 1.0436(4) 0.7768(9)
C4C C 0.1695(10) 1.0436(4) 0.2232(9)
C4L C 0.1695(10) 1.0436(4) 0.7768(9)
C4D C 0.8305(10) 0.9564(4) 0.2232(9)
H8J H 0.1835 0.9790 0.2474
H8K H 0.8165 0.9790 0.7526
H8H H 0.8165 1.0210 0.2474
H8B H 0.8165 1.0210 0.7526
H8C H 0.1835 1.0210 0.2474
H8L H 0.1835 1.0210 0.7526
H8D H 0.8165 0.9790 0.2474
C5J C 0.1027(10) 0.9511(4) 0.1709(9)
C5K C 0.8973(10) 0.9511(4) 0.8291(9)
C5H C 0.8973(10) 1.0489(4) 0.1709(9)
C5B C 0.8973(10) 1.0489(4) 0.8291(9)
C5C C 0.1027(10) 1.0489(4) 0.1709(9)
C5L C 0.1027(10) 1.0489(4) 0.8291(9)
C5D C 0.8973(10) 0.9511(4) 0.1709(9)
H9J H 0.0663 0.9696 0.1532
H9K H 0.9337 0.9696 0.8468
H9H H 0.9337 1.0304 0.1532
H9B H 0.9337 1.0304 0.8468
H9C H 0.0663 1.0304 0.1532
H9L H 0.0663 1.0304 0.8468
H9D H 0.9337 0.9696 0.1532
C6J C 0.1027(17) 0.9130(8) 0.1515(13)
C6K C 0.8973(17) 0.9130(8) 0.8485(13)
C6H C 0.8973(17) 1.0870(8) 0.1515(13)
C6B C 0.8973(17) 1.0870(8) 0.8485(13)
C6C C 0.1027(17) 1.0870(8) 0.1515(13)
C6L C 0.1027(17) 1.0870(8) 0.8485(13)
C6D C 0.8973(17) 0.9130(8) 0.1515(13)
H10J H 0.0619 0.9023 0.1204
H10K H 0.9381 0.9023 0.8796
H10H H 0.9381 1.0977 0.1204
H10B H 0.9381 1.0977 0.8796
H10C H 0.0619 1.0977 0.1204
H10L H 0.0619 1.0977 0.8796
H10D H 0.9381 0.9023 0.1204
N6J N 0.290(2) 0.8505(12) 0.180(3)
N6K N 0.710(2) 0.8505(12) 0.820(3)
N6H N 0.710(2) 1.1495(12) 0.180(3)
N6B N 0.710(2) 1.1495(12) 0.820(3)
N6C N 0.290(2) 1.1495(12) 0.180(3)
N6L N 0.290(2) 1.1495(12) 0.820(3)
N6D N 0.710(2) 0.8505(12) 0.180(3)
N7J N 0.3417(17) 0.8755(7) 0.2276(17)
N7K N 0.6583(17) 0.8755(7) 0.7724(17)
N7H N 0.6583(17) 1.1245(7) 0.2276(17)
N7B N 0.6583(17) 1.1245(7) 0.7724(17)
N7C N 0.3417(17) 1.1245(7) 0.2276(17)
N7L N 0.3417(17) 1.1245(7) 0.7724(17)
N7D N 0.6583(17) 0.8755(7) 0.2276(17)
C7J C 0.4252(11) 0.8706(5) 0.2002(9)
C7K C 0.5748(11) 0.8706(5) 0.7998(9)
C7H C 0.5748(11) 1.1294(5) 0.2002(9)
C7B C 0.5748(11) 1.1294(5) 0.7998(9)
C7C C 0.4252(11) 1.1294(5) 0.2002(9)
C7L C 0.4252(11) 1.1294(5) 0.7998(9)
C7D C 0.5748(11) 0.8706(5) 0.2002(9)
H11J H 0.4718 0.8831 0.2183
H11K H 0.5282 0.8831 0.7817
H11H H 0.5282 1.1169 0.2183
H11B H 0.5282 1.1169 0.7817
H11C H 0.4718 1.1169 0.2183
H11L H 0.4718 1.1169 0.7817
H11D H 0.5282 0.8831 0.2183
C8J C 0.4227(9) 0.8427(4) 0.1397(9)
C8K C 0.5773(9) 0.8427(4) 0.8603(9)
C8H C 0.5773(9) 1.1573(4) 0.1397(9)
C8B C 0.5773(9) 1.1573(4) 0.8603(9)
C8C C 0.4227(9) 1.1573(4) 0.1397(9)
C8L C 0.4227(9) 1.1573(4) 0.8603(9)
C8D C 0.5773(9) 0.8427(4) 0.1397(9)
H12J H 0.4677 0.8339 0.1112
H12K H 0.5323 0.8339 0.8888
H12H H 0.5323 1.1661 0.1112
H12B H 0.5323 1.1661 0.8888
H12C H 0.4677 1.1661 0.1112
H12L H 0.4677 1.1661 0.8888
H12D H 0.5323 0.8339 0.1112
C9J C 0.3403(13) 0.8308(6) 0.1309(12)
C9K C 0.6597(13) 0.8308(6) 0.8691(12)
C9H C 0.6597(13) 1.1692(6) 0.1309(12)
C9B C 0.6597(13) 1.1692(6) 0.8691(12)
C9C C 0.3403(13) 1.1692(6) 0.1309(12)
C9L C 0.3403(13) 1.1692(6) 0.8691(12)
C9D C 0.6597(13) 0.8308(6) 0.1309(12)
H13J H 0.3226 0.8122 0.0964
H13K H 0.6774 0.8122 0.9036
H13H H 0.6774 1.1878 0.0964
H13B H 0.6774 1.1878 0.9036
H13C H 0.3226 1.1878 0.0964
H13L H 0.3226 1.1878 0.9036
H13D H 0.6774 0.8122 0.0964
N8J N 0.177(5) 0.846(2) 0.280(3)
N8K N 0.823(5) 0.846(2) 0.720(3)
N8H N 0.823(5) 1.154(2) 0.280(3)
N8B N 0.823(5) 1.154(2) 0.720(3)
N8C N 0.177(5) 1.154(2) 0.280(3)
N8L N 0.177(5) 1.154(2) 0.720(3)
N8D N 0.823(5) 0.846(2) 0.280(3)
N9J N 0.224(3) 0.8632(12) 0.341(3)
N9K N 0.776(3) 0.8632(12) 0.659(3)
N9H N 0.776(3) 1.1368(12) 0.341(3)
N9B N 0.776(3) 1.1368(12) 0.659(3)
N9C N 0.224(3) 1.1368(12) 0.341(3)
N9L N 0.224(3) 1.1368(12) 0.659(3)
N9D N 0.776(3) 0.8632(12) 0.341(3)
C10J C 0.2128(11) 0.8446(5) 0.4083(10)
C10K C 0.7872(11) 0.8446(5) 0.5917(10)
C10H C 0.7872(11) 1.1554(5) 0.4083(10)
C10B C 0.7872(11) 1.1554(5) 0.5917(10)
C10C C 0.2128(11) 1.1554(5) 0.4083(10)
C10L C 0.2128(11) 1.1554(5) 0.5917(10)
C10D C 0.7872(11) 0.8446(5) 0.4083(10)
H14J H 0.2360 0.8514 0.4559
H14K H 0.7640 0.8514 0.5441
H14H H 0.7640 1.1486 0.4559
H14B H 0.7640 1.1486 0.5441
H14C H 0.2360 1.1486 0.4559
H14L H 0.2360 1.1486 0.5441
H14D H 0.7640 0.8514 0.4559
C11J C 0.1614(11) 0.8136(5) 0.3965(8)
C11K C 0.8386(11) 0.8136(5) 0.6035(8)
C11H C 0.8386(11) 1.1864(5) 0.3965(8)
C11B C 0.8386(11) 1.1864(5) 0.6035(8)
C11C C 0.1614(11) 1.1864(5) 0.3965(8)
C11L C 0.1614(11) 1.1864(5) 0.6035(8)
C11D C 0.8386(11) 0.8136(5) 0.3965(8)
H15J H 0.1452 0.7959 0.4337
H15K H 0.8548 0.7959 0.5663
H15H H 0.8548 1.2041 0.4337
H15B H 0.8548 1.2041 0.5663
H15C H 0.1452 1.2041 0.4337
H15L H 0.1452 1.2041 0.5663
H15D H 0.8548 0.7959 0.4337
C12J C 0.138(2) 0.8142(10) 0.315(2)
C12K C 0.862(2) 0.8142(10) 0.685(2)
C12H C 0.862(2) 1.1858(10) 0.315(2)
C12B C 0.862(2) 1.1858(10) 0.685(2)
C12C C 0.138(2) 1.1858(10) 0.315(2)
C12L C 0.138(2) 1.1858(10) 0.685(2)
C12D C 0.862(2) 0.8142(10) 0.315(2)
H16J H 0.1034 0.7970 0.2903
H16K H 0.8966 0.7970 0.7097
H16H H 0.8966 1.2030 0.2903
H16B H 0.8966 1.2030 0.7097
H16C H 0.1034 1.2030 0.2903
H16L H 0.1034 1.2030 0.7097
H16D H 0.8966 0.7970 0.2903
O4 O 0.5000 0.5855(2) 1.0000
C22 C 0.5000 0.5705(2) 0.9248(5)
H27 H 0.4523 0.5539 0.9233
H28 H 0.5477 0.5539 0.9233
C23 C 0.5000 0.5903(3) 0.8468(5)
C22J C 0.5000 0.5705(2) 1.0752(5)
H27J H 0.4523 0.5539 1.0767
H27D H 0.5477 0.5539 1.0767
C23J C 0.5000 0.5903(3) 1.1532(5)
Cl1 Cl 0.5000 0.75943(10) 1.0000
O5 O 0.5743(4) 0.77911(18) 1.0000
O6 O 0.5000 0.73513(18) 0.9342(3)
O5K O 0.4257(4) 0.77911(18) 1.0000
O6J O 0.5000 0.73513(18) 1.0658(3)
Cl2 Cl 1.0000 0.82568(10) 1.0000
O7 O 0.9249(4) 0.80392(17) 1.0000
O8 O 1.0000 0.84920(18) 0.9373(3)
O7K O 1.0751(4) 0.80392(17) 1.0000
O8J O 1.0000 0.84920(18) 1.0627(3)
O9 O 1.0000 0.7387(4) 0.8330(7)
H32 H 0.9652 0.7469 0.8661
H32K H 1.0348 0.7469 0.8661
O10 O 1.0000 0.5000 1.0000
O11 O 1.0000 0.9570(5) 1.0000
H36 H 1.0000 0.9650 0.9533
H36J H 1.0000 0.9650 1.0467
O14 O 0.2248(11) 0.7541(5) 0.9078(10)
H42 H 0.1753 0.7530 0.9241
H43 H 0.2572 0.7571 0.9464
O15 O 0.1815(8) 0.8543(4) 1.0000
H44 H 0.2017 0.8691 0.9658
H44J H 0.2017 0.8691 1.0342
loop_
_geom_bond_atom_site_label_1
_geom_bond_atom_site_label_2
_geom_bond_site_symmetry_1
_geom_bond_site_symmetry_2
Fe1 C1 1_555 1_555
Cu1 O1 1_555 1_555
Cu2 O2 1_555 1_555
Cu3 O3 1_555 1_555
C1 N1 1_555 1_555
C2 Fe1 1_555 1_555
C3 Fe1 1_555 1_555
O1 H2 1_555 1_555
O2 H3 1_555 1_555
N1 Cu3 1_555 1_555
N2 Cu1 1_555 1_555
N3 Cu2 1_555 1_555
B1 H7 1_555 1_555
N4 B1 1_555 1_555
N5 Fe1 1_555 1_555
C4 N5 1_555 1_555
H8 C4 1_555 1_555
C5 C4 1_555 1_555
H9 C5 1_555 1_555
C6 N4 1_555 1_555
H10 C6 1_555 1_555
N6 B1 1_555 1_555
N7 Fe1 1_555 1_555
C7 N7 1_555 1_555
H11 C7 1_555 1_555
C8 C7 1_555 1_555
H12 C8 1_555 1_555
C9 N6 1_555 1_555
H13 C9 1_555 1_555
N8 B1 1_555 1_555
N9 Fe1 1_555 1_555
C10 N9 1_555 1_555
H14 C10 1_555 1_555
C11 C10 1_555 1_555
H15 C11 1_555 1_555
C12 N8 1_555 1_555
H16 C12 1_555 1_555
O4 C22 1_555 1_555
C22 H27 1_555 1_555
H28 C22 1_555 1_555
C23 C22 1_555 1_555
Cl1 O5 1_555 1_555
O6 Cl1 1_555 1_555
Cl2 O7 1_555 1_555
O8 Cl2 1_555 1_555
O9 H32 1_555 1_555
O11 H36 1_555 1_555
O14 H42 1_555 1_555
H43 O14 1_555 1_555
O15 H44 1_555 1_555
Fe1K C1K 1_555 1_555
Fe1J C1J 1_555 1_555
Fe1D C1D 1_555 1_555
Fe1H C1H 1_555 1_555
Fe1C C1C 1_555 1_555
Fe1L C1L 1_555 1_555
Fe1B C1B 1_555 1_555
Cu1L O1L 1_555 1_555
Cu2K O2K 1_555 1_555
Cu3J O3J 1_555 1_555
C1K N1K 1_555 1_555
C1J N1J 1_555 1_555
C1D N1D 1_555 1_555
C1H N1H 1_555 1_555
C1C N1C 1_555 1_555
C1L N1L 1_555 1_555
C1B N1B 1_555 1_555
C2K Fe1K 1_555 1_555
C2D Fe1D 1_555 1_555
C2J Fe1J 1_555 1_555
C2C Fe1C 1_555 1_555
C2L Fe1L 1_555 1_555
C2B Fe1B 1_555 1_555
C2H Fe1H 1_555 1_555
C3J Fe1J 1_555 1_555
C3D Fe1D 1_555 1_555
C3K Fe1K 1_555 1_555
C3H Fe1H 1_555 1_555
C3B Fe1B 1_555 1_555
C3L Fe1L 1_555 1_555
C3C Fe1C 1_555 1_555
O1L H2H 1_555 1_555
H2J O1 1_555 1_555
H2L O1L 1_555 1_555
O2K H3H 1_555 1_555
H3J O2 1_555 1_555
H3K O2K 1_555 1_555
N1K Cu3 1_555 1_555
N1J Cu3J 1_555 1_555
N1D Cu3J 1_555 1_555
N1H Cu3J 1_555 1_555
N1C Cu3J 1_555 1_555
N1L Cu3 1_555 1_555
N1B Cu3 1_555 1_555
N2K Cu1 1_555 1_555
N2D Cu1 1_555 1_555
N2J Cu1 1_555 1_555
N2C Cu1L 1_555 1_555
N2L Cu1L 1_555 1_555
N2B Cu1L 1_555 1_555
N2H Cu1L 1_555 1_555
N3J Cu2 1_555 1_555
N3D Cu2K 1_555 1_555
N3K Cu2K 1_555 1_555
N3H Cu2K 1_555 1_555
N3B Cu2K 1_555 1_555
N3L Cu2 1_555 1_555
N3C Cu2 1_555 1_555
B1J H7J 1_555 1_555
B1K H7K 1_555 1_555
B1H H7H 1_555 1_555
B1B H7B 1_555 1_555
B1C H7C 1_555 1_555
B1L H7L 1_555 1_555
B1D H7D 1_555 1_555
N4J B1J 1_555 1_555
N4K B1K 1_555 1_555
N4H B1H 1_555 1_555
N4B B1B 1_555 1_555
N4C B1C 1_555 1_555
N4L B1L 1_555 1_555
N4D B1D 1_555 1_555
N5J Fe1J 1_555 1_555
N5K Fe1K 1_555 1_555
N5H Fe1H 1_555 1_555
N5B Fe1B 1_555 1_555
N5C Fe1C 1_555 1_555
N5L Fe1L 1_555 1_555
N5D Fe1D 1_555 1_555
C4J N5J 1_555 1_555
C4K N5K 1_555 1_555
C4H N5H 1_555 1_555
C4B N5B 1_555 1_555
C4C N5C 1_555 1_555
C4L N5L 1_555 1_555
C4D N5D 1_555 1_555
H8J C4J 1_555 1_555
H8K C4K 1_555 1_555
H8H C4H 1_555 1_555
H8B C4B 1_555 1_555
H8C C4C 1_555 1_555
H8L C4L 1_555 1_555
H8D C4D 1_555 1_555
C5J C4J 1_555 1_555
C5K C4K 1_555 1_555
C5H C4H 1_555 1_555
C5B C4B 1_555 1_555
C5C C4C 1_555 1_555
C5L C4L 1_555 1_555
C5D C4D 1_555 1_555
H9J C5J 1_555 1_555
H9K C5K 1_555 1_555
H9H C5H 1_555 1_555
H9B C5B 1_555 1_555
H9C C5C 1_555 1_555
H9L C5L 1_555 1_555
H9D C5D 1_555 1_555
C6J N4J 1_555 1_555
C6K N4K 1_555 1_555
C6H N4H 1_555 1_555
C6B N4B 1_555 1_555
C6C N4C 1_555 1_555
C6L N4L 1_555 1_555
C6D N4D 1_555 1_555
H10J C6J 1_555 1_555
H10K C6K 1_555 1_555
H10H C6H 1_555 1_555
H10B C6B 1_555 1_555
H10C C6C 1_555 1_555
H10L C6L 1_555 1_555
H10D C6D 1_555 1_555
N6J B1J 1_555 1_555
N6K B1K 1_555 1_555
N6H B1H 1_555 1_555
N6B B1B 1_555 1_555
N6C B1C 1_555 1_555
N6L B1L 1_555 1_555
N6D B1D 1_555 1_555
N7J Fe1J 1_555 1_555
N7K Fe1K 1_555 1_555
N7H Fe1H 1_555 1_555
N7B Fe1B 1_555 1_555
N7C Fe1C 1_555 1_555
N7L Fe1L 1_555 1_555
N7D Fe1D 1_555 1_555
C7J N7J 1_555 1_555
C7K N7K 1_555 1_555
C7H N7H 1_555 1_555
C7B N7B 1_555 1_555
C7C N7C 1_555 1_555
C7L N7L 1_555 1_555
C7D N7D 1_555 1_555
H11J C7J 1_555 1_555
H11K C7K 1_555 1_555
H11H C7H 1_555 1_555
H11B C7B 1_555 1_555
H11C C7C 1_555 1_555
H11L C7L 1_555 1_555
H11D C7D 1_555 1_555
C8J C7J 1_555 1_555
C8K C7K 1_555 1_555
C8H C7H 1_555 1_555
C8B C7B 1_555 1_555
C8C C7C 1_555 1_555
C8L C7L 1_555 1_555
C8D C7D 1_555 1_555
H12J C8J 1_555 1_555
H12K C8K 1_555 1_555
H12H C8H 1_555 1_555
H12B C8B 1_555 1_555
H12C C8C 1_555 1_555
H12L C8L 1_555 1_555
H12D C8D 1_555 1_555
C9J N6J 1_555 1_555
C9K N6K 1_555 1_555
C9H N6H 1_555 1_555
C9B N6B 1_555 1_555
C9C N6C 1_555 1_555
C9L N6L 1_555 1_555
C9D N6D 1_555 1_555
H13J C9J 1_555 1_555
H13K C9K 1_555 1_555
H13H C9H 1_555 1_555
H13B C9B 1_555 1_555
H13C C9C 1_555 1_555
H13L C9L 1_555 1_555
H13D C9D 1_555 1_555
N8J B1J 1_555 1_555
N8K B1K 1_555 1_555
N8H B1H 1_555 1_555
N8B B1B 1_555 1_555
N8C B1C 1_555 1_555
N8L B1L 1_555 1_555
N8D B1D 1_555 1_555
N9J Fe1J 1_555 1_555
N9K Fe1K 1_555 1_555
N9H Fe1H 1_555 1_555
N9B Fe1B 1_555 1_555
N9C Fe1C 1_555 1_555
N9L Fe1L 1_555 1_555
N9D Fe1D 1_555 1_555
C10J N9J 1_555 1_555
C10K N9K 1_555 1_555
C10H N9H 1_555 1_555
C10B N9B 1_555 1_555
C10C N9C 1_555 1_555
C10L N9L 1_555 1_555
C10D N9D 1_555 1_555
H14J C10J 1_555 1_555
H14K C10K 1_555 1_555
H14H C10H 1_555 1_555
H14B C10B 1_555 1_555
H14C C10C 1_555 1_555
H14L C10L 1_555 1_555
H14D C10D 1_555 1_555
C11J C10J 1_555 1_555
C11K C10K 1_555 1_555
C11H C10H 1_555 1_555
C11B C10B 1_555 1_555
C11C C10C 1_555 1_555
C11L C10L 1_555 1_555
C11D C10D 1_555 1_555
H15J C11J 1_555 1_555
H15K C11K 1_555 1_555
H15H C11H 1_555 1_555
H15B C11B 1_555 1_555
H15C C11C 1_555 1_555
H15L C11L 1_555 1_555
H15D C11D 1_555 1_555
C12J N8J 1_555 1_555
C12K N8K 1_555 1_555
C12H N8H 1_555 1_555
C12B N8B 1_555 1_555
C12C N8C 1_555 1_555
C12L N8L 1_555 1_555
C12D N8D 1_555 1_555
H16J C12J 1_555 1_555
H16K C12K 1_555 1_555
H16H C12H 1_555 1_555
H16B C12B 1_555 1_555
H16C C12C 1_555 1_555
H16L C12L 1_555 1_555
H16D C12D 1_555 1_555
C22J O4 1_555 1_555
H27J C22J 1_555 1_555
H27D C22J 1_555 1_555
C23J C22J 1_555 1_555
O5K Cl1 1_555 1_555
O6J Cl1 1_555 1_555
O7K Cl2 1_555 1_555
O8J Cl2 1_555 1_555
H32K O9 1_555 1_555
H36J O11 1_555 1_555
H44J O15 1_555 1_555
C2 N2 1_555 1_555
C3 N3 1_555 1_555
N4 N5 1_555 1_555
C5 C6 1_555 1_555
N6 N7 1_555 1_555
C8 C9 1_555 1_555
N8 N9 1_555 1_555
C11 C12 1_555 1_555
C2K N2K 1_555 1_555
C2D N2D 1_555 1_555
C2J N2J 1_555 1_555
C2C N2C 1_555 1_555
C2L N2L 1_555 1_555
C2B N2B 1_555 1_555
C2H N2H 1_555 1_555
C3J N3J 1_555 1_555
C3D N3D 1_555 1_555
C3K N3K 1_555 1_555
C3H N3H 1_555 1_555
C3B N3B 1_555 1_555
C3L N3L 1_555 1_555
C3C N3C 1_555 1_555
N4J N5J 1_555 1_555
N4K N5K 1_555 1_555
N4H N5H 1_555 1_555
N4B N5B 1_555 1_555
N4C N5C 1_555 1_555
N4L N5L 1_555 1_555
N4D N5D 1_555 1_555
C5J C6J 1_555 1_555
C5K C6K 1_555 1_555
C5H C6H 1_555 1_555
C5B C6B 1_555 1_555
C5C C6C 1_555 1_555
C5L C6L 1_555 1_555
C5D C6D 1_555 1_555
N6J N7J 1_555 1_555
N6K N7K 1_555 1_555
N6H N7H 1_555 1_555
N6B N7B 1_555 1_555
N6C N7C 1_555 1_555
N6L N7L 1_555 1_555
N6D N7D 1_555 1_555
C8J C9J 1_555 1_555
C8K C9K 1_555 1_555
C8H C9H 1_555 1_555
C8B C9B 1_555 1_555
C8C C9C 1_555 1_555
C8L C9L 1_555 1_555
C8D C9D 1_555 1_555
N8J N9J 1_555 1_555
N8K N9K 1_555 1_555
N8H N9H 1_555 1_555
N8B N9B 1_555 1_555
N8C N9C 1_555 1_555
N8L N9L 1_555 1_555
N8D N9D 1_555 1_555
C11J C12J 1_555 1_555
C11K C12K 1_555 1_555
C11H C12H 1_555 1_555
C11B C12B 1_555 1_555
C11C C12C 1_555 1_555
C11L C12L 1_555 1_555
C11D C12D 1_555 1_555

#END
