
#######################################################################
#
#                 Cambridge Crystallographic Data Centre
#                                CCDC 
#
#######################################################################
#
# If this CIF has been generated from an entry in the Cambridge 
# Structural Database, then it will include bibliographic, chemical, 
# crystal, experimental, refinement or atomic coordinate data resulting 
# from the CCDC's data processing and validation procedures.
#
#######################################################################

data_FEMSEW
_chemical_formula_moiety         
'C132 H96 N36 Pd6 12+,C17 H19 N2 O2,12(N1 O3 1-),38(H2 O1)'
_chemical_name_systematic        
"tetrakis(\m~3~-2,4,6-tris(4-Pyridyl)-1,3,5-triazine)-hexakis((2,2'-bipyridine)-palladium) 2-naphthyl nitronyl nitroxide radical clathrate dodecanitrate hydrate"
_symmetry_cell_setting           tetragonal
_symmetry_space_group_name_H-M   'P 43 21 2'
_symmetry_Int_Tables_number      96
_space_group_name_Hall           'P 4nw 2abw'
loop_
_symmetry_equiv_pos_site_id
_symmetry_equiv_pos_as_xyz
1 x,y,z
2 -x,-y,1/2+z
3 1/2-y,1/2+x,3/4+z
4 1/2+y,1/2-x,1/4+z
5 1/2-x,1/2+y,3/4-z
6 1/2+x,1/2-y,1/4-z
7 y,x,-z
8 -y,-x,1/2-z
_cell_length_a                   29.162(3)
_cell_length_b                   29.162(3)
_cell_length_c                   30.451(6)
_cell_angle_alpha                90
_cell_angle_beta                 90
_cell_angle_gamma                90
_cell_volume                     25896.2
_exptl_crystal_colour            'dark purple'
_exptl_crystal_description       cubic
_cell_formula_units_Z            4
loop_
_atom_site_label
_atom_site_type_symbol
_atom_site_fract_x
_atom_site_fract_y
_atom_site_fract_z
Pd1 Pd 0.50923(4) 0.50923(4) 1.0000
Pd2 Pd 0.67989(4) 0.79876(4) 0.70945(3)
Pd3 Pd 0.94839(4) 0.51903(4) 0.91932(4)
Pd4 Pd 0.96264(4) 0.96264(4) 1.0000
N1 N 0.6261(5) 0.8138(5) 0.6716(4)
N2 N 0.7116(5) 0.8191(5) 0.6536(3)
N3 N 0.6438(5) 0.7835(4) 0.7652(4)
N4 N 0.7371(4) 0.7882(5) 0.7465(4)
N5 N 0.8610(5) 0.7247(4) 0.8436(4)
N6 N 0.8605(4) 0.8047(4) 0.8591(4)
N7 N 0.9099(4) 0.7548(4) 0.8990(5)
N8 N 0.9436(5) 0.9094(5) 0.9611(5)
N9 N 0.9307(5) 0.5840(4) 0.9058(4)
N10 N 0.9818(5) 1.0144(6) 1.0337(5)
N11 N 0.9984(5) 0.5166(6) 0.8735(5)
N12 N 0.9674(5) 0.4541(4) 0.9251(5)
N13 N 0.8974(4) 0.5206(4) 0.9652(5)
N14 N 0.7446(4) 0.5321(5) 1.0389(4)
N15 N 0.7957(4) 0.5643(5) 1.0904(4)
N16 N 0.7143(4) 0.5627(5) 1.1049(4)
N17 N 0.5741(5) 0.5158(5) 1.0241(4)
N18 N 0.4997(5) 0.4443(5) 1.0206(4)
C1 C 0.8186(5) 0.5168(6) 0.9817(5)
H1 H 0.7887 0.5098 0.9733
C2 C 0.7567(6) 0.8231(5) 0.7666(5)
H2 H 0.7459 0.8524 0.7605
C3 C 0.6097(5) 0.5071(5) 0.9969(6)
H3 H 0.6039 0.4967 0.9686
C4 C 0.8077(5) 0.7751(5) 0.8045(4)
C5 C 0.8704(5) 0.5426(5) 1.0343(5)
H4 H 0.8765 0.5534 1.0624
C6 C 1.0156(9) 0.5473(10) 0.8500(7)
H5 H 1.0038 0.5764 0.8551
C7 C 1.0143(6) 0.4753(8) 0.8665(7)
C8 C 0.9110(6) 0.8362(5) 0.9142(5)
C9 C 0.7522(6) 0.7465(5) 0.7548(5)
H6 H 0.7376 0.7216 0.7417
C10 C 0.9486(5) 0.6185(5) 0.9276(5)
H7 H 0.9699 0.6125 0.9496
C11 C 0.7885(6) 0.7386(5) 0.7816(5)
H8 H 0.8003 0.7091 0.7847
C12 C 0.5321(6) 0.4173(5) 1.0400(5)
H9 H 0.5611 0.4293 1.0454
C13 C 0.9984(5) 0.4391(6) 0.8953(6)
C14 C 0.8910(6) 0.7210(5) 0.8747(5)
C15 C 0.7099(6) 0.5435(6) 1.0651(5)
C16 C 0.6626(6) 0.5315(6) 1.0525(6)
C17 C 0.9660(10) 1.0298(10) 1.0710(10)
H10 H 0.9418 1.0131 1.0830
C18 C 0.7912(5) 0.8189(5) 0.7952(5)
H11 H 0.8039 0.8446 0.8085
C19 C 0.9637(7) 0.3778(6) 0.9560(8)
H12 H 0.9506 0.3572 0.9756
C20 C 0.9367(6) 0.6637(5) 0.9189(6)
H13 H 0.9487 0.6872 0.9359
C21 C 0.9113(7) 0.9136(6) 0.9321(5)
H14 H 0.8982 0.9425 0.9290
C22 C 0.8553(5) 0.5098(5) 0.9520(5)
H15 H 0.8501 0.4981 0.9240
C23 C 0.5818(7) 0.8082(7) 0.6837(7)
H16 H 0.5758 0.7953 0.7110
C24 C 0.8934(5) 0.7956(5) 0.8893(5)
C25 C 0.8272(5) 0.5337(5) 1.0226(5)
C26 C 0.9493(7) 0.4246(5) 0.9558(6)
H17 H 0.9279 0.4350 0.9762
C27 C 1.0475(9) 0.5458(11) 0.8191(8)
H18 H 1.0576 0.5707 0.8027
C28 C 0.8442(5) 0.7697(5) 0.8376(5)
C29 C 0.7852(5) 0.5438(5) 1.0531(5)
C30 C 0.6348(7) 0.8321(7) 0.6331(5)
C31 C 0.5455(7) 0.8205(8) 0.6580(7)
H19 H 0.5154 0.8145 0.6663
C32 C 0.6543(6) 0.5134(6) 1.0104(5)
H20 H 0.6785 0.5057 0.9919
C33 C 0.9070(6) 0.6739(5) 0.8849(5)
C34 C 0.8951(6) 0.8805(6) 0.9064(6)
H21 H 0.8740 0.8867 0.8842
C35 C 0.6005(9) 0.8477(9) 0.6059(7)
H22 H 0.6084 0.8612 0.5793
C36 C 0.6400(5) 0.8150(6) 0.7951(5)
H23 H 0.6529 0.8436 0.7897
C37 C 0.6829(7) 0.8358(6) 0.6237(4)
C38 C 0.9060(5) 0.5362(5) 1.0053(4)
H24 H 0.9359 0.5427 1.0138
C39 C 0.4832(10) 0.3555(8) 1.0433(9)
H25 H 0.4773 0.3252 1.0508
C40 C 0.8884(7) 0.6374(5) 0.8615(6)
H26 H 0.8672 0.6419 0.8391
C41 C 1.0514(9) 0.4661(11) 0.8374(9)
H27 H 1.0648 0.4372 0.8357
C42 C 0.5806(6) 0.5288(7) 1.0651(6)
H28 H 0.5556 0.5317 1.0839
C43 C 0.7582(6) 0.5722(6) 1.1171(5)
C44 C 0.9033(7) 0.5937(6) 0.8734(6)
H29 H 0.8926 0.5693 0.8566
C45 C 0.6182(6) 0.8082(6) 0.8335(5)
H30 H 0.6163 0.8319 0.8538
C46 C 0.7678(6) 0.5994(6) 1.1576(5)
C47 C 0.6287(7) 0.7419(7) 0.7731(6)
H31 H 0.6355 0.7186 0.7532
C48 C 0.7315(6) 0.6026(7) 1.1894(6)
H32 H 0.7033 0.5884 1.1855
C49 C 0.9458(7) 0.8282(6) 0.9443(5)
H33 H 0.9579 0.7992 0.9492
C50 C 0.5228(8) 0.3730(6) 1.0517(7)
H34 H 0.5451 0.3555 1.0658
C51 C 0.6256(6) 0.5382(7) 1.0810(6)
H35 H 0.6302 0.5486 1.1096
C52 C 0.9800(12) 1.0673(11) 1.0953(10)
H36 H 0.9660 1.0766 1.1213
C53 C 0.9944(7) 0.3642(6) 0.9294(9)
H37 H 1.0062 0.3348 0.9327
C54 C 0.4580(7) 0.4288(6) 1.0099(6)
C55 C 0.9612(6) 0.8674(6) 0.9670(5)
H38 H 0.9849 0.8639 0.9871
C56 C 0.4467(9) 0.3833(8) 1.0217(8)
H39 H 0.4178 0.3713 1.0162
C57 C 1.0379(10) 1.0766(9) 1.0380(8)
H40 H 1.0634 1.0908 1.0259
C58 C 0.6999(9) 0.8526(9) 0.5834(6)
H41 H 0.6801 0.8632 0.5617
C59 C 0.7590(7) 0.8187(7) 0.6460(6)
H42 H 0.7785 0.8060 0.6669
C60 C 1.0167(7) 1.0406(7) 1.0198(6)
C61 C 1.0128(7) 0.3946(7) 0.8920(8)
H43 H 1.0316 0.3839 0.8696
C62 C 0.5565(10) 0.8439(9) 0.6163(8)
H44 H 0.5336 0.8555 0.5982
C63 C 0.7766(9) 0.8364(9) 0.6091(6)
H45 H 0.8081 0.8380 0.6044
C64 C 0.7446(11) 0.8527(11) 0.5774(8)
H46 H 0.7560 0.8640 0.5510
C65 C 1.0180(11) 1.0900(11) 1.0760(11)
H47 H 1.0299 1.1155 1.0903
C66 C 1.0647(10) 0.4981(12) 0.8146(9)
H48 H 1.0868 0.4922 0.7934
Pd2F Pd 0.79876(4) 0.67989(4) 1.29055(3)
Pd3F Pd 0.51903(4) 0.94839(4) 1.08068(4)
N1F N 0.8138(5) 0.6261(5) 1.3284(4)
N2F N 0.8191(5) 0.7116(5) 1.3464(3)
N3F N 0.7835(4) 0.6438(5) 1.2348(4)
N4F N 0.7882(5) 0.7371(4) 1.2535(4)
N5F N 0.7247(4) 0.8610(5) 1.1564(4)
N6F N 0.8047(4) 0.8605(4) 1.1409(4)
N7F N 0.7548(4) 0.9099(4) 1.1010(5)
N8F N 0.9094(5) 0.9436(5) 1.0389(5)
N9F N 0.5840(4) 0.9307(5) 1.0942(4)
N10F N 1.0144(6) 0.9818(5) 0.9663(5)
N11F N 0.5166(6) 0.9984(5) 1.1265(5)
N12F N 0.4541(4) 0.9674(5) 1.0749(5)
N13F N 0.5206(4) 0.8974(4) 1.0348(5)
N14F N 0.5321(5) 0.7446(4) 0.9611(4)
N15F N 0.5643(5) 0.7957(4) 0.9096(4)
N16F N 0.5627(5) 0.7143(4) 0.8951(4)
N17F N 0.5158(5) 0.5741(5) 0.9759(4)
N18F N 0.4443(5) 0.4997(5) 0.9794(4)
C1F C 0.5168(6) 0.8186(5) 1.0183(5)
H1F H 0.5098 0.7887 1.0267
C2F C 0.8231(5) 0.7567(6) 1.2334(5)
H2F H 0.8524 0.7459 1.2395
C3F C 0.5071(5) 0.6097(5) 1.0031(6)
H3F H 0.4967 0.6039 1.0314
C4F C 0.7751(5) 0.8077(5) 1.1955(4)
C5F C 0.5426(5) 0.8704(5) 0.9657(5)
H4F H 0.5534 0.8765 0.9376
C6F C 0.5473(10) 1.0156(9) 1.1500(7)
H5F H 0.5764 1.0038 1.1449
C7F C 0.4753(8) 1.0143(6) 1.1335(7)
C8F C 0.8362(5) 0.9110(6) 1.0858(5)
C9F C 0.7465(5) 0.7522(6) 1.2452(5)
H6F H 0.7216 0.7376 1.2583
C10F C 0.6185(5) 0.9486(5) 1.0724(5)
H7F H 0.6125 0.9699 1.0504
C11F C 0.7386(5) 0.7885(6) 1.2184(5)
H8F H 0.7091 0.8003 1.2153
C12F C 0.4173(5) 0.5321(6) 0.9600(5)
H9F H 0.4293 0.5611 0.9546
C13F C 0.4391(6) 0.9984(5) 1.1047(6)
C14F C 0.7210(5) 0.8910(6) 1.1253(5)
C15F C 0.5435(6) 0.7099(6) 0.9349(5)
C16F C 0.5315(6) 0.6626(6) 0.9475(6)
C17F C 1.0298(10) 0.9660(10) 0.9290(10)
H10F H 1.0131 0.9418 0.9170
C18F C 0.8189(5) 0.7912(5) 1.2048(5)
H11F H 0.8446 0.8039 1.1915
C19F C 0.3778(6) 0.9637(7) 1.0440(8)
H12F H 0.3572 0.9506 1.0244
C20F C 0.6637(5) 0.9367(6) 1.0811(6)
H13F H 0.6872 0.9487 1.0641
C21F C 0.9136(6) 0.9113(7) 1.0679(5)
H14F H 0.9425 0.8982 1.0710
C22F C 0.5098(5) 0.8553(5) 1.0480(5)
H15F H 0.4981 0.8501 1.0760
C23F C 0.8082(7) 0.5818(7) 1.3163(7)
H16F H 0.7953 0.5758 1.2890
C24F C 0.7956(5) 0.8934(5) 1.1107(5)
C25F C 0.5337(5) 0.8272(5) 0.9774(5)
C26F C 0.4246(5) 0.9493(7) 1.0442(6)
H17F H 0.4350 0.9279 1.0238
C27F C 0.5458(11) 1.0475(9) 1.1809(8)
H18F H 0.5707 1.0576 1.1973
C28F C 0.7697(5) 0.8442(5) 1.1624(5)
C29F C 0.5438(5) 0.7852(5) 0.9469(5)
C30F C 0.8321(7) 0.6348(7) 1.3669(5)
C31F C 0.8205(8) 0.5455(7) 1.3420(7)
H19F H 0.8145 0.5154 1.3337
C32F C 0.5134(6) 0.6543(6) 0.9896(5)
H20F H 0.5057 0.6785 1.0081
C33F C 0.6739(5) 0.9070(6) 1.1151(5)
C34F C 0.8805(6) 0.8951(6) 1.0936(6)
H21F H 0.8867 0.8740 1.1158
C35F C 0.8477(9) 0.6005(9) 1.3941(7)
H22F H 0.8612 0.6084 1.4207
C36F C 0.8150(6) 0.6400(5) 1.2049(5)
H23F H 0.8436 0.6529 1.2103
C37F C 0.8358(6) 0.6829(7) 1.3763(4)
C38F C 0.5362(5) 0.9060(5) 0.9947(4)
H24F H 0.5427 0.9359 0.9862
C39F C 0.3555(8) 0.4832(10) 0.9567(9)
H25F H 0.3252 0.4773 0.9492
C40F C 0.6374(5) 0.8884(7) 1.1385(6)
H26F H 0.6419 0.8672 1.1609
C41F C 0.4661(11) 1.0514(9) 1.1626(9)
H27F H 0.4372 1.0648 1.1643
C42F C 0.5288(7) 0.5806(6) 0.9349(6)
H28F H 0.5317 0.5556 0.9161
C43F C 0.5722(6) 0.7582(6) 0.8829(5)
C44F C 0.5937(6) 0.9033(7) 1.1266(6)
H29F H 0.5693 0.8926 1.1434
C45F C 0.8082(6) 0.6182(6) 1.1665(5)
H30F H 0.8319 0.6163 1.1462
C46F C 0.5994(6) 0.7678(6) 0.8424(5)
C47F C 0.7419(7) 0.6287(7) 1.2269(6)
H31F H 0.7186 0.6355 1.2468
C48F C 0.6026(7) 0.7315(6) 0.8106(6)
H32F H 0.5884 0.7033 0.8145
C49F C 0.8282(6) 0.9458(7) 1.0557(5)
H33F H 0.7992 0.9579 1.0508
C50F C 0.3730(6) 0.5228(8) 0.9483(7)
H34F H 0.3555 0.5451 0.9342
C51F C 0.5382(7) 0.6256(6) 0.9190(6)
H35F H 0.5486 0.6302 0.8904
C52F C 1.0673(11) 0.9800(12) 0.9047(10)
H36F H 1.0766 0.9660 0.8787
C53F C 0.3642(6) 0.9944(7) 1.0706(9)
H37F H 0.3348 1.0062 1.0673
C54F C 0.4288(6) 0.4580(7) 0.9901(6)
C55F C 0.8674(6) 0.9612(6) 1.0330(5)
H38F H 0.8639 0.9849 1.0129
C56F C 0.3833(8) 0.4467(9) 0.9783(8)
H39F H 0.3713 0.4178 0.9838
C57F C 1.0766(9) 1.0379(10) 0.9620(8)
H40F H 1.0908 1.0634 0.9741
C58F C 0.8526(9) 0.6999(9) 1.4166(6)
H41F H 0.8632 0.6801 1.4383
C59F C 0.8187(7) 0.7590(7) 1.3540(6)
H42F H 0.8060 0.7785 1.3331
C60F C 1.0406(7) 1.0167(7) 0.9802(6)
C61F C 0.3946(7) 1.0128(7) 1.1080(8)
H43F H 0.3839 1.0316 1.1304
C62F C 0.8439(9) 0.5565(10) 1.3837(8)
H44F H 0.8555 0.5336 1.4018
C63F C 0.8364(9) 0.7766(9) 1.3909(6)
H45F H 0.8380 0.8081 1.3956
C64F C 0.8527(11) 0.7446(11) 1.4226(8)
H46F H 0.8640 0.7560 1.4490
C65F C 1.0900(11) 1.0180(11) 0.9240(11)
H47F H 1.1155 1.0299 0.9097
C66F C 0.4981(12) 1.0647(10) 1.1854(9)
H48F H 0.4922 1.0868 1.2066
O1 O 0.5274(16) 0.7631(15) 0.5301(14)
O2 O 0.1085(14) 0.3835(14) 0.9951(13)
O3 O 0.5962(14) 0.3233(14) 0.1293(13)
O4 O 0.8649(11) 0.9069(11) 0.7888(10)
O5 O 0.9176(17) 0.7700(17) 0.7545(17)
O6 O 0.4896(13) 0.8446(13) 0.4377(12)
O7 O 0.5022(14) 0.7761(9) 0.7566(11)
O8 O 0.470(2) 0.728(2) 0.5980(19)
O9 O 0.6190(10) 0.4143(9) 0.1112(14)
O10 O 0.656(2) 0.454(2) 0.1722(19)
O11 O 0.6718(14) 0.6954(13) 0.6845(12)
O12 O 0.7331(8) 0.4386(10) 0.0847(12)
O13 O 0.7473(7) 0.4757(6) 0.1639(12)
O14 O 0.0302(6) 0.6351(12) 1.0162(8)
O15 O 0.9153(14) 0.6690(14) 0.7561(14)
O16 O 0.9572(12) 0.7997(12) 0.8081(11)
O17 O 0.8555(10) 0.7996(14) 0.6902(7)
O18 O 0.839(2) 0.6372(14) 0.7611(13)
O19 O 0.7034(7) 0.9141(6) 0.8233(6)
O20 O 0.5367(19) 0.6937(19) 0.7128(17)
O21 O 0.4297(18) 0.8372(18) 0.7217(16)
N19 N 0.8415(6) 0.4180(6) 0.0377(6)
O22 O 0.8062(5) 0.4076(5) 0.0158(5)
O23 O 0.8773(5) 0.4128(5) 0.0259(5)
O24 O 0.8317(6) 0.4312(6) 0.0770(5)
N20 N 0.8785(6) 0.4523(7) 0.8521(6)
O25 O 0.8466(6) 0.4841(6) 0.8519(6)
O26 O 0.9115(7) 0.4625(7) 0.8285(7)
O27 O 0.8765(6) 0.4178(6) 0.8753(5)
N21 N 0.9732(11) 0.9239(10) 0.8271(13)
O28 O 0.9523(8) 0.9619(7) 0.8363(7)
O29 O 1.0043(8) 0.9088(8) 0.8430(9)
O30 O 0.9423(11) 0.8940(10) 0.8115(11)
N22 N 0.0471(15) 0.5304(12) 0.9695(16)
O31 O 0.0121(13) 0.5306(13) 0.9943(13)
O32 O 0.0658(12) 0.4999(12) 0.9564(13)
O33 O 0.0542(18) 0.5745(13) 0.9614(16)
N23 N 1.0737(12) 0.9176(13) 1.0484(13)
O34 O 1.0618(12) 0.9470(11) 1.0773(11)
O35 O 1.1012(12) 0.9240(13) 1.0239(12)
O36 O 1.0346(10) 0.8949(10) 1.0440(10)
C67 C 0.7235(15) 0.7759(13) 0.9180(14)
H49 H 0.7478 0.7717 0.8987
C68 C 0.6978(18) 0.7385(11) 0.9319(17)
C69 C 0.6613(17) 0.7448(11) 0.9607(17)
H50 H 0.6442 0.7197 0.9700
C70 C 0.6505(14) 0.7886(13) 0.9755(14)
H51 H 0.6261 0.7928 0.9948
C71 C 0.6762(11) 0.8260(10) 0.9616(9)
C72 C 0.7127(12) 0.8197(11) 0.9328(10)
C73 C 0.7383(14) 0.8571(14) 0.9189(15)
H52 H 0.7627 0.8529 0.8997
C74 C 0.7275(17) 0.9009(12) 0.9337(18)
H53 H 0.7447 0.9259 0.9244
C75 C 0.6911(18) 0.9072(10) 0.9625(16)
H54 H 0.6839 0.9365 0.9725
C76 C 0.6654(15) 0.8698(11) 0.9765(12)
H55 H 0.6410 0.8740 0.9957
C77 C 0.7031(18) 0.6926(11) 0.9128(16)
N24 N 0.7374(17) 0.6776(13) 0.8856(18)
N25 N 0.6789(15) 0.6531(13) 0.9216(16)
O37 O 0.767(2) 0.7041(17) 0.867(2)
O38 O 0.646(2) 0.6529(18) 0.950(2)
C78 C 0.7344(15) 0.6279(13) 0.8700(12)
C79 C 0.7714(18) 0.5909(19) 0.8638(15)
H56 H 0.7931 0.6008 0.8420
H57 H 0.7573 0.5628 0.8543
H58 H 0.7870 0.5858 0.8911
C80 C 0.7073(16) 0.6271(15) 0.8270(12)
H59 H 0.7263 0.6383 0.8035
H60 H 0.6807 0.6462 0.8297
H61 H 0.6979 0.5962 0.8206
C81 C 0.7004(12) 0.6095(10) 0.9053(12)
C82 C 0.6566(15) 0.5823(19) 0.8958(16)
H62 H 0.6416 0.5748 0.9229
H63 H 0.6643 0.5545 0.8804
H64 H 0.6364 0.6004 0.8780
C83 C 0.7221(15) 0.5883(19) 0.9453(12)
H65 H 0.6986 0.5779 0.9650
H66 H 0.7409 0.6106 0.9598
H67 H 0.7408 0.5627 0.9365
loop_
_geom_bond_atom_site_label_1
_geom_bond_atom_site_label_2
_geom_bond_site_symmetry_1
_geom_bond_site_symmetry_2
Pd1 N17 1_555 1_555
Pd2 N1 1_555 1_555
Pd3 N9 1_555 1_555
Pd4 N8 1_555 1_555
N1 C23 1_555 1_555
N2 Pd2 1_555 1_555
N3 Pd2 1_555 1_555
N4 Pd2 1_555 1_555
N5 C14 1_555 1_555
N6 C24 1_555 1_555
N7 C14 1_555 1_555
N8 C21 1_555 1_555
N9 C10 1_555 1_555
N10 Pd4 1_555 1_555
N11 Pd3 1_555 1_555
N12 Pd3 1_555 1_555
N13 Pd3 1_555 1_555
N14 C15 1_555 1_555
N15 C29 1_555 1_555
N16 C15 1_555 1_555
N17 C3 1_555 1_555
N18 Pd1 1_555 1_555
C1 H1 1_555 1_555
C2 N4 1_555 1_555
H2 C2 1_555 1_555
C3 H3 1_555 1_555
C4 C11 1_555 1_555
C5 H4 1_555 1_555
C6 N11 1_555 1_555
H5 C6 1_555 1_555
C7 N11 1_555 1_555
C8 C24 1_555 1_555
C9 N4 1_555 1_555
H6 C9 1_555 1_555
C10 H7 1_555 1_555
C11 C9 1_555 1_555
H8 C11 1_555 1_555
C12 N18 1_555 1_555
H9 C12 1_555 1_555
C13 N12 1_555 1_555
C14 C33 1_555 1_555
C15 C16 1_555 1_555
C16 C32 1_555 1_555
C17 N10 1_555 1_555
H10 C17 1_555 1_555
C18 C2 1_555 1_555
H11 C18 1_555 1_555
C19 H12 1_555 1_555
C20 C10 1_555 1_555
H13 C20 1_555 1_555
C21 H14 1_555 1_555
C22 N13 1_555 1_555
H15 C22 1_555 1_555
C23 H16 1_555 1_555
C24 N7 1_555 1_555
C25 C1 1_555 1_555
C26 N12 1_555 1_555
H17 C26 1_555 1_555
C27 C6 1_555 1_555
H18 C27 1_555 1_555
C28 N5 1_555 1_555
C29 N14 1_555 1_555
C30 N1 1_555 1_555
C31 C23 1_555 1_555
H19 C31 1_555 1_555
C32 C3 1_555 1_555
H20 C32 1_555 1_555
C33 C20 1_555 1_555
C34 C8 1_555 1_555
H21 C34 1_555 1_555
C35 C30 1_555 1_555
H22 C35 1_555 1_555
C36 N3 1_555 1_555
H23 C36 1_555 1_555
C37 N2 1_555 1_555
C38 N13 1_555 1_555
H24 C38 1_555 1_555
C39 H25 1_555 1_555
C40 C33 1_555 1_555
H26 C40 1_555 1_555
C41 C7 1_555 1_555
H27 C41 1_555 1_555
C42 N17 1_555 1_555
H28 C42 1_555 1_555
C43 N15 1_555 1_555
C44 N9 1_555 1_555
H29 C44 1_555 1_555
C45 C36 1_555 1_555
H30 C45 1_555 1_555
C46 C43 1_555 1_555
C47 N3 1_555 1_555
H31 C47 1_555 1_555
C48 C46 1_555 1_555
H32 C48 1_555 1_555
C49 C8 1_555 1_555
H33 C49 1_555 1_555
C50 C12 1_555 1_555
H34 C50 1_555 1_555
C51 C16 1_555 1_555
H35 C51 1_555 1_555
C52 C17 1_555 1_555
H36 C52 1_555 1_555
C53 C19 1_555 1_555
H37 C53 1_555 1_555
C54 N18 1_555 1_555
C55 N8 1_555 1_555
H38 C55 1_555 1_555
C56 C39 1_555 1_555
H39 C56 1_555 1_555
C57 H40 1_555 1_555
C58 C37 1_555 1_555
H41 C58 1_555 1_555
C59 N2 1_555 1_555
H42 C59 1_555 1_555
C60 N10 1_555 1_555
C61 C13 1_555 1_555
H43 C61 1_555 1_555
C62 C31 1_555 1_555
H44 C62 1_555 1_555
C63 C59 1_555 1_555
H45 C63 1_555 1_555
C64 C58 1_555 1_555
H46 C64 1_555 1_555
C65 C52 1_555 1_555
H47 C65 1_555 1_555
C66 C27 1_555 1_555
H48 C66 1_555 1_555
N19 O22 1_555 1_555
O23 N19 1_555 1_555
O24 N19 1_555 1_555
N20 O25 1_555 1_555
O26 N20 1_555 1_555
O27 N20 1_555 1_555
N21 O28 1_555 1_555
O29 N21 1_555 1_555
O30 N21 1_555 1_555
N22 O31 1_555 1_555
O32 N22 1_555 1_555
O33 N22 1_555 1_555
N23 O34 1_555 1_555
O35 N23 1_555 1_555
O36 N23 1_555 1_555
C67 H49 1_555 1_555
C68 C67 1_555 1_555
C69 C68 1_555 1_555
H50 C69 1_555 1_555
C70 C69 1_555 1_555
H51 C70 1_555 1_555
C71 C70 1_555 1_555
C72 C67 1_555 1_555
C73 C72 1_555 1_555
H52 C73 1_555 1_555
C74 C73 1_555 1_555
H53 C74 1_555 1_555
C75 C74 1_555 1_555
H54 C75 1_555 1_555
C76 C71 1_555 1_555
H55 C76 1_555 1_555
C77 C68 1_555 1_555
N24 C77 1_555 1_555
N25 C77 1_555 1_555
O37 N24 1_555 1_555
O38 N25 1_555 1_555
C78 N24 1_555 1_555
C79 C78 1_555 1_555
H56 C79 1_555 1_555
H57 C79 1_555 1_555
H58 C79 1_555 1_555
C80 C78 1_555 1_555
H59 C80 1_555 1_555
H60 C80 1_555 1_555
H61 C80 1_555 1_555
C81 N25 1_555 1_555
C82 C81 1_555 1_555
H62 C82 1_555 1_555
H63 C82 1_555 1_555
H64 C82 1_555 1_555
C83 C81 1_555 1_555
H65 C83 1_555 1_555
H66 C83 1_555 1_555
H67 C83 1_555 1_555
Pd2F N1F 1_555 1_555
Pd3F N9F 1_555 1_555
N1F C23F 1_555 1_555
N2F Pd2F 1_555 1_555
N3F Pd2F 1_555 1_555
N4F Pd2F 1_555 1_555
N5F C14F 1_555 1_555
N6F C24F 1_555 1_555
N7F C14F 1_555 1_555
N8F Pd4 1_555 1_555
N9F C10F 1_555 1_555
N10F Pd4 1_555 1_555
N11F Pd3F 1_555 1_555
N12F Pd3F 1_555 1_555
N13F Pd3F 1_555 1_555
N14F C15F 1_555 1_555
N15F C29F 1_555 1_555
N16F C15F 1_555 1_555
N17F Pd1 1_555 1_555
N18F Pd1 1_555 1_555
C1F H1F 1_555 1_555
C2F N4F 1_555 1_555
H2F C2F 1_555 1_555
C3F N17F 1_555 1_555
H3F C3F 1_555 1_555
C4F C11F 1_555 1_555
C5F H4F 1_555 1_555
C6F N11F 1_555 1_555
H5F C6F 1_555 1_555
C7F N11F 1_555 1_555
C8F C24F 1_555 1_555
C9F N4F 1_555 1_555
H6F C9F 1_555 1_555
C10F H7F 1_555 1_555
C11F C9F 1_555 1_555
H8F C11F 1_555 1_555
C12F N18F 1_555 1_555
H9F C12F 1_555 1_555
C13F N12F 1_555 1_555
C14F C33F 1_555 1_555
C15F C16F 1_555 1_555
C16F C32F 1_555 1_555
C17F N10F 1_555 1_555
H10F C17F 1_555 1_555
C18F C2F 1_555 1_555
H11F C18F 1_555 1_555
C19F H12F 1_555 1_555
C20F C10F 1_555 1_555
H13F C20F 1_555 1_555
C21F N8F 1_555 1_555
H14F C21F 1_555 1_555
C22F N13F 1_555 1_555
H15F C22F 1_555 1_555
C23F H16F 1_555 1_555
C24F N7F 1_555 1_555
C25F C1F 1_555 1_555
C26F N12F 1_555 1_555
H17F C26F 1_555 1_555
C27F C6F 1_555 1_555
H18F C27F 1_555 1_555
C28F N5F 1_555 1_555
C29F N14F 1_555 1_555
C30F N1F 1_555 1_555
C31F C23F 1_555 1_555
H19F C31F 1_555 1_555
C32F C3F 1_555 1_555
H20F C32F 1_555 1_555
C33F C20F 1_555 1_555
C34F C8F 1_555 1_555
H21F C34F 1_555 1_555
C35F C30F 1_555 1_555
H22F C35F 1_555 1_555
C36F N3F 1_555 1_555
H23F C36F 1_555 1_555
C37F N2F 1_555 1_555
C38F N13F 1_555 1_555
H24F C38F 1_555 1_555
C39F H25F 1_555 1_555
C40F C33F 1_555 1_555
H26F C40F 1_555 1_555
C41F C7F 1_555 1_555
H27F C41F 1_555 1_555
C42F N17F 1_555 1_555
H28F C42F 1_555 1_555
C43F N15F 1_555 1_555
C44F N9F 1_555 1_555
H29F C44F 1_555 1_555
C45F C46 1_555 1_555
H30F C45F 1_555 1_555
C46F C45 1_555 1_555
C47F C48 1_555 1_555
H31F C47F 1_555 1_555
C48F C47 1_555 1_555
H32F C48F 1_555 1_555
C49F C8F 1_555 1_555
H33F C49F 1_555 1_555
C50F C12F 1_555 1_555
H34F C50F 1_555 1_555
C51F C16F 1_555 1_555
H35F C51F 1_555 1_555
C52F C17F 1_555 1_555
H36F C52F 1_555 1_555
C53F C19F 1_555 1_555
H37F C53F 1_555 1_555
C54F C54 1_555 1_555
C55F N8F 1_555 1_555
H38F C55F 1_555 1_555
C56F C39F 1_555 1_555
H39F C56F 1_555 1_555
C57F H40F 1_555 1_555
C58F C37F 1_555 1_555
H41F C58F 1_555 1_555
C59F N2F 1_555 1_555
H42F C59F 1_555 1_555
C60F C60 1_555 1_555
C61F C13F 1_555 1_555
H43F C61F 1_555 1_555
C62F C31F 1_555 1_555
H44F C62F 1_555 1_555
C63F C59F 1_555 1_555
H45F C63F 1_555 1_555
C64F C58F 1_555 1_555
H46F C64F 1_555 1_555
C65F C52F 1_555 1_555
H47F C65F 1_555 1_555
C66F C27F 1_555 1_555
H48F C66F 1_555 1_555
N6 C28 1_555 1_555
N16 C43 1_555 1_555
C1 C22 1_555 1_555
C4 C18 1_555 1_555
C4 C28 1_555 1_555
C5 C25 1_555 1_555
C5 C38 1_555 1_555
C7 C13 1_555 1_555
C19 C26 1_555 1_555
C21 C34 1_555 1_555
C25 C29 1_555 1_555
C30 C37 1_555 1_555
C35 C62 1_555 1_555
C39 C50 1_555 1_555
C40 C44 1_555 1_555
C41 C66 1_555 1_555
C42 C51 1_555 1_555
C49 C55 1_555 1_555
C53 C61 1_555 1_555
C54 C56 1_555 1_555
C57 C60 1_555 1_555
C57 C65 1_555 1_555
C63 C64 1_555 1_555
C71 C72 1_555 1_555
C75 C76 1_555 1_555
C78 C81 1_555 1_555
N3F C47F 1_555 1_555
N6F C28F 1_555 1_555
N10F C60F 1_555 1_555
N16F C43F 1_555 1_555
N18F C54F 1_555 1_555
C1F C22F 1_555 1_555
C4F C18F 1_555 1_555
C4F C28F 1_555 1_555
C5F C25F 1_555 1_555
C5F C38F 1_555 1_555
C7F C13F 1_555 1_555
C19F C26F 1_555 1_555
C21F C34F 1_555 1_555
C25F C29F 1_555 1_555
C30F C37F 1_555 1_555
C35F C62F 1_555 1_555
C36F C45F 1_555 1_555
C39F C50F 1_555 1_555
C40F C44F 1_555 1_555
C41F C66F 1_555 1_555
C42F C51F 1_555 1_555
C43F C46F 1_555 1_555
C46F C48F 1_555 1_555
C49F C55F 1_555 1_555
C53F C61F 1_555 1_555
C54F C56F 1_555 1_555
C57F C60F 1_555 1_555
C57F C65F 1_555 1_555
C63F C64F 1_555 1_555

#END
