
#######################################################################
#
#                 Cambridge Crystallographic Data Centre
#                                CCDC 
#
#######################################################################
#
# If this CIF has been generated from an entry in the Cambridge 
# Structural Database, then it will include bibliographic, chemical, 
# crystal, experimental, refinement or atomic coordinate data resulting 
# from the CCDC's data processing and validation procedures.
#
#######################################################################

data_FIVGIB
_chemical_formula_moiety         'C64 H48 Cu2 N8 O4,2(C1 H2 Cl2),H2 O1'
_chemical_name_systematic        
"bis(\m~2~-3,3'-bis(3-(2-Oxyphenyl)pyrazol-1-ylmethyl)biphenyl)-di-copper(ii) dichloromethane solvate monohydrate"
_symmetry_cell_setting           monoclinic
_symmetry_space_group_name_H-M   'P 21/c'
_symmetry_Int_Tables_number      14
_space_group_name_Hall           '-P 2ybc'
loop_
_symmetry_equiv_pos_site_id
_symmetry_equiv_pos_as_xyz
1 x,y,z
2 -x,1/2+y,1/2-z
3 -x,-y,-z
4 x,1/2-y,1/2+z
_cell_length_a                   15.766(3)
_cell_length_b                   16.639(3)
_cell_length_c                   21.995(4)
_cell_angle_alpha                90
_cell_angle_beta                 103.279(3)
_cell_angle_gamma                90
_cell_volume                     5615.69
_exptl_crystal_colour            purple
_exptl_crystal_description       block
_cell_formula_units_Z            4
_exptl_crystal_recrystallization_method 'di-isopropyl ether/dichloromethane'
loop_
_atom_site_label
_atom_site_type_symbol
_atom_site_fract_x
_atom_site_fract_y
_atom_site_fract_z
Cu1 Cu 1.13625(3) 0.34666(3) 1.11126(2)
Cu2 Cu 0.53160(3) 0.31308(3) 0.77044(2)
O1 O 1.20345(17) 0.37633(17) 1.05396(13)
O2 O 0.5615(2) 0.3288(2) 0.69327(13)
O3 O 1.11457(18) 0.37842(17) 1.18836(12)
O4 O 0.45738(19) 0.35107(19) 0.82055(14)
N1 N 1.2024(2) 0.2496(2) 1.13646(15)
N2 N 1.1821(2) 0.1892(2) 1.17246(15)
N3 N 0.6592(2) 0.3802(2) 0.87916(15)
N4 N 0.6373(2) 0.3673(2) 0.81589(15)
N5 N 1.0220(2) 0.3827(2) 1.06520(15)
N6 N 0.9939(2) 0.3827(2) 1.00147(16)
N7 N 0.4910(2) 0.1475(2) 0.72091(16)
N8 N 0.4696(2) 0.2113(2) 0.75258(15)
C1 C 0.8784(3) 0.2070(3) 1.07174(18)
C2 C 0.9510(3) 0.2214(3) 1.12115(18)
H1 H 0.9509 0.2671 1.1470
C3 C 1.0225(3) 0.1705(2) 1.13316(19)
C4 C 1.0232(3) 0.1039(3) 1.0946(2)
H2 H 1.0726 0.0695 1.1013
C5 C 0.9514(3) 0.0883(3) 1.0465(2)
H3 H 0.9514 0.0423 1.0209
C6 C 0.8798(3) 0.1384(3) 1.0352(2)
H4 H 0.8310 0.1262 1.0022
C7 C 1.0980(3) 0.1861(3) 1.18869(19)
H5 H 1.0879 0.2378 1.2082
H6 H 1.0993 0.1431 1.2200
C8 C 1.2477(3) 0.1350(3) 1.18502(19)
H7 H 1.2491 0.0877 1.2094
C9 C 1.3123(3) 0.1601(3) 1.15647(18)
H8 H 1.3660 0.1340 1.1572
C10 C 1.2823(2) 0.2317(3) 1.12642(17)
C11 C 1.3252(3) 0.2846(3) 1.08891(18)
C12 C 1.4107(3) 0.2647(3) 1.0856(2)
H9 H 1.4379 0.2188 1.1074
C13 C 1.4563(3) 0.3109(3) 1.0512(2)
H10 H 1.5144 0.2972 1.0500
C14 C 1.4164(3) 0.3767(3) 1.0186(2)
H11 H 1.4470 0.4081 0.9946
C15 C 1.3324(3) 0.3975(3) 1.02057(18)
H12 H 1.3064 0.4433 0.9979
C16 C 1.2841(2) 0.3524(2) 1.05543(17)
C17 C 0.8027(3) 0.2637(3) 1.05877(18)
C18 C 0.7487(3) 0.2718(3) 0.99866(19)
H13 H 0.7603 0.2399 0.9657
C19 C 0.6793(3) 0.3247(3) 0.98589(19)
C20 C 0.6636(3) 0.3731(3) 1.0341(2)
H14 H 0.6178 0.4115 1.0257
C21 C 0.7147(3) 0.3651(3) 1.09390(19)
H15 H 0.7027 0.3969 1.1268
C22 C 0.7828(3) 0.3112(3) 1.10605(19)
H16 H 0.8170 0.3062 1.1475
C23 C 0.6204(3) 0.3304(3) 0.92115(19)
H17 H 0.6093 0.2758 0.9033
H18 H 0.5638 0.3539 0.9241
C24 C 0.7236(3) 0.4345(3) 0.8931(2)
H19 H 0.7493 0.4539 0.9338
C25 C 0.7463(3) 0.4574(3) 0.83891(19)
H20 H 0.7900 0.4950 0.8347
C26 C 0.6913(3) 0.4135(3) 0.79114(19)
C27 C 0.6892(3) 0.4132(3) 0.72369(18)
C28 C 0.7550(3) 0.4549(3) 0.7039(2)
H21 H 0.7975 0.4835 0.7337
C29 C 0.7600(3) 0.4555(3) 0.6417(2)
H22 H 0.8048 0.4846 0.6290
C30 C 0.6977(3) 0.4127(3) 0.5980(2)
H23 H 0.7005 0.4123 0.5553
C31 C 0.6333(3) 0.3716(3) 0.6164(2)
H24 H 0.5916 0.3430 0.5861
C32 C 0.6267(3) 0.3704(3) 0.67998(19)
C33 C 0.8600(3) 0.2467(3) 0.82912(19)
C34 C 0.9118(3) 0.2607(3) 0.88879(19)
H25 H 0.9005 0.2317 0.9233
C35 C 0.9799(3) 0.3161(3) 0.89889(19)
C36 C 0.9959(3) 0.3593(3) 0.8494(2)
H26 H 1.0424 0.3971 0.8561
C37 C 0.9440(3) 0.3478(3) 0.7892(2)
H27 H 0.9547 0.3783 0.7553
C38 C 0.8776(3) 0.2923(3) 0.77931(19)
H28 H 0.8430 0.2845 0.7383
C39 C 1.0361(3) 0.3294(3) 0.9641(2)
H29 H 1.0482 0.2769 0.9855
H30 H 1.0924 0.3531 0.9608
C40 C 0.9221(3) 0.4289(3) 0.9839(2)
H31 H 0.8910 0.4386 0.9421
C41 C 0.9016(3) 0.4594(3) 1.0367(2)
H32 H 0.8543 0.4940 1.0387
C42 C 0.9651(3) 0.4288(3) 1.0872(2)
C43 C 0.9703(3) 0.4353(2) 1.1550(2)
C44 C 0.8966(3) 0.4668(3) 1.1744(2)
H33 H 0.8480 0.4853 1.1437
C45 C 0.8943(3) 0.4711(3) 1.2361(2)
H34 H 0.8443 0.4915 1.2481
C46 C 0.9657(3) 0.4453(3) 1.2808(2)
H35 H 0.9644 0.4485 1.3237
C47 C 1.0386(3) 0.4152(3) 1.2644(2)
H36 H 1.0870 0.3981 1.2960
C48 C 1.0422(3) 0.4093(3) 1.2006(2)
C49 C 0.7895(3) 0.1857(3) 0.81838(18)
C50 C 0.7170(3) 0.1915(3) 0.76838(19)
H37 H 0.7125 0.2363 0.7410
C51 C 0.6516(3) 0.1346(3) 0.7573(2)
C52 C 0.6574(3) 0.0691(3) 0.7973(2)
H38 H 0.6132 0.0291 0.7900
C53 C 0.7279(3) 0.0625(3) 0.8476(2)
H39 H 0.7312 0.0185 0.8755
C54 C 0.7941(3) 0.1194(3) 0.8581(2)
H40 H 0.8428 0.1133 0.8924
C55 C 0.5741(3) 0.1425(3) 0.7024(2)
H41 H 0.5814 0.1913 0.6784
H42 H 0.5727 0.0956 0.6745
C56 C 0.4288(3) 0.0900(3) 0.7137(2)
H43 H 0.4294 0.0397 0.6933
C57 C 0.3646(3) 0.1176(3) 0.7410(2)
H44 H 0.3121 0.0906 0.7429
C58 C 0.3916(3) 0.1932(3) 0.76554(19)
C59 C 0.3452(3) 0.2475(3) 0.79937(18)
C60 C 0.2621(3) 0.2239(3) 0.8060(2)
H45 H 0.2384 0.1743 0.7886
C61 C 0.2144(3) 0.2713(3) 0.8374(2)
H46 H 0.1586 0.2542 0.8418
C62 C 0.2480(3) 0.3435(3) 0.8623(2)
H47 H 0.2153 0.3762 0.8840
C63 C 0.3292(3) 0.3688(3) 0.8559(2)
H48 H 0.3509 0.4193 0.8730
C64 C 0.3803(3) 0.3221(3) 0.82490(19)
O5 O 0.4838(10) 0.4889(12) 0.8903(8)
H49 H 0.4742 0.4452 0.8699
H50 H 0.5127 0.5194 0.8715
Cl1 Cl 0.5156(2) 0.65499(17) 0.56461(13)
Cl2 Cl 0.44529(15) 0.49539(17) 0.57545(11)
C65 C 0.5288(7) 0.5620(5) 0.6039(5)
H51 H 0.5846 0.5376 0.5999
H52 H 0.5323 0.5713 0.6488
Cl5 Cl 0.90712(17) -0.13613(14) 1.07319(11)
Cl6 Cl 0.7601(2) -0.06212(16) 0.98951(11)
C67 C 0.8012(7) -0.1509(7) 1.0282(6)
H55 H 0.7629 -0.1684 1.0556
H56 H 0.8017 -0.1938 0.9972
Cl3? Cl 0.5721(2) 0.6709(2) 0.54091(15)
Cl4? Cl 0.4565(2) 0.5853(3) 0.60222(17)
C66? C 0.5580(7) 0.5834(8) 0.5810(6)
H53? H 0.6056 0.5786 0.6190
H54? H 0.5606 0.5361 0.5542
Cl7? Cl 0.6736(3) -0.0656(2) 0.98644(14)
C68? C 0.7341(7) -0.1370(7) 1.0372(6)
H57? H 0.7274 -0.1269 1.0802
H58? H 0.7111 -0.1914 1.0247
Cl8? Cl 0.8444(3) -0.1332(3) 1.0362(3)
loop_
_geom_bond_atom_site_label_1
_geom_bond_atom_site_label_2
_geom_bond_site_symmetry_1
_geom_bond_site_symmetry_2
Cu1 O1 1_555 1_555
Cu2 O2 1_555 1_555
O1 C16 1_555 1_555
O2 C32 1_555 1_555
O3 Cu1 1_555 1_555
O4 Cu2 1_555 1_555
N1 Cu1 1_555 1_555
N2 N1 1_555 1_555
N3 N4 1_555 1_555
N4 Cu2 1_555 1_555
N5 Cu1 1_555 1_555
N6 N5 1_555 1_555
N7 N8 1_555 1_555
N8 Cu2 1_555 1_555
C1 C2 1_555 1_555
C2 H1 1_555 1_555
C3 C2 1_555 1_555
C4 C3 1_555 1_555
H2 C4 1_555 1_555
C5 C4 1_555 1_555
H3 C5 1_555 1_555
C6 C1 1_555 1_555
H4 C6 1_555 1_555
C7 N2 1_555 1_555
H5 C7 1_555 1_555
H6 C7 1_555 1_555
C8 N2 1_555 1_555
H7 C8 1_555 1_555
C9 C8 1_555 1_555
H8 C9 1_555 1_555
C10 N1 1_555 1_555
C11 C10 1_555 1_555
C12 C11 1_555 1_555
H9 C12 1_555 1_555
C13 C12 1_555 1_555
H10 C13 1_555 1_555
C14 C13 1_555 1_555
H11 C14 1_555 1_555
C15 C14 1_555 1_555
H12 C15 1_555 1_555
C16 C11 1_555 1_555
C17 C1 1_555 1_555
C18 C17 1_555 1_555
H13 C18 1_555 1_555
C19 C18 1_555 1_555
C20 C19 1_555 1_555
H14 C20 1_555 1_555
C21 C20 1_555 1_555
H15 C21 1_555 1_555
C22 C17 1_555 1_555
H16 C22 1_555 1_555
C23 N3 1_555 1_555
H17 C23 1_555 1_555
H18 C23 1_555 1_555
C24 N3 1_555 1_555
H19 C24 1_555 1_555
C25 C24 1_555 1_555
H20 C25 1_555 1_555
C26 N4 1_555 1_555
C27 C26 1_555 1_555
C28 C27 1_555 1_555
H21 C28 1_555 1_555
C29 C28 1_555 1_555
H22 C29 1_555 1_555
C30 C29 1_555 1_555
H23 C30 1_555 1_555
C31 C30 1_555 1_555
H24 C31 1_555 1_555
C32 C27 1_555 1_555
C33 C34 1_555 1_555
C34 H25 1_555 1_555
C35 C34 1_555 1_555
C36 C35 1_555 1_555
H26 C36 1_555 1_555
C37 C36 1_555 1_555
H27 C37 1_555 1_555
C38 C33 1_555 1_555
H28 C38 1_555 1_555
C39 N6 1_555 1_555
H29 C39 1_555 1_555
H30 C39 1_555 1_555
C40 N6 1_555 1_555
H31 C40 1_555 1_555
C41 C40 1_555 1_555
H32 C41 1_555 1_555
C42 N5 1_555 1_555
C43 C42 1_555 1_555
C44 C43 1_555 1_555
H33 C44 1_555 1_555
C45 C44 1_555 1_555
H34 C45 1_555 1_555
C46 C45 1_555 1_555
H35 C46 1_555 1_555
C47 C46 1_555 1_555
H36 C47 1_555 1_555
C48 O3 1_555 1_555
C49 C33 1_555 1_555
C50 C49 1_555 1_555
H37 C50 1_555 1_555
C51 C50 1_555 1_555
C52 C51 1_555 1_555
H38 C52 1_555 1_555
C53 C52 1_555 1_555
H39 C53 1_555 1_555
C54 C49 1_555 1_555
H40 C54 1_555 1_555
C55 N7 1_555 1_555
H41 C55 1_555 1_555
H42 C55 1_555 1_555
C56 N7 1_555 1_555
H43 C56 1_555 1_555
C57 C56 1_555 1_555
H44 C57 1_555 1_555
C58 N8 1_555 1_555
C59 C58 1_555 1_555
C60 C59 1_555 1_555
H45 C60 1_555 1_555
C61 C60 1_555 1_555
H46 C61 1_555 1_555
C62 C61 1_555 1_555
H47 C62 1_555 1_555
C63 C62 1_555 1_555
H48 C63 1_555 1_555
C64 O4 1_555 1_555
O5 H49 1_555 1_555
H50 O5 1_555 1_555
Cl1 C65 1_555 1_555
Cl2 C65 1_555 1_555
C65 H51 1_555 1_555
H52 C65 1_555 1_555
Cl5 C67 1_555 1_555
Cl6 C67 1_555 1_555
C67 H55 1_555 1_555
H56 C67 1_555 1_555
C3 C7 1_555 1_555
C5 C6 1_555 1_555
C9 C10 1_555 1_555
C15 C16 1_555 1_555
C19 C23 1_555 1_555
C21 C22 1_555 1_555
C25 C26 1_555 1_555
C31 C32 1_555 1_555
C35 C39 1_555 1_555
C37 C38 1_555 1_555
C41 C42 1_555 1_555
C43 C48 1_555 1_555
C47 C48 1_555 1_555
C51 C55 1_555 1_555
C53 C54 1_555 1_555
C57 C58 1_555 1_555
C59 C64 1_555 1_555
C63 C64 1_555 1_555

#END
