
#######################################################################
#
#                 Cambridge Crystallographic Data Centre
#                                CCDC 
#
#######################################################################
#
# If this CIF has been generated from an entry in the Cambridge 
# Structural Database, then it will include bibliographic, chemical, 
# crystal, experimental, refinement or atomic coordinate data resulting 
# from the CCDC's data processing and validation procedures.
#
#######################################################################

data_GARYAZ
_chemical_formula_moiety         'C108 H60 N12 O36 Ti4 8-,8(C6 H16 N1 1+)'
_chemical_name_systematic        
'octakis(Triethylammonium) tetrakis(\m~3~-benzene-1,3,5-tris(2,3-dihydroxybenzoylamino))-tetra-titanium(iv)'
_symmetry_cell_setting           rhombohedral
_symmetry_space_group_name_H-M   'R -3 c'
_symmetry_Int_Tables_number      167
_space_group_name_Hall           '-R 3 2"c'
loop_
_symmetry_equiv_pos_site_id
_symmetry_equiv_pos_as_xyz
1 x,y,z
2 2/3+x,1/3+y,1/3+z
3 1/3+x,2/3+y,2/3+z
4 -y,x-y,z
5 2/3-y,1/3+x-y,1/3+z
6 -x+y,-x,z
7 2/3-x+y,1/3-x,1/3+z
8 1/3-y,2/3-x,1/6+z
9 x,x-y,1/2+z
10 2/3+x,1/3+x-y,5/6+z
11 1/3+x,2/3+x-y,1/6+z
12 -x+y,y,1/2+z
13 2/3-x+y,1/3+y,5/6+z
14 1/3-x+y,2/3+y,1/6+z
15 2/3+y,1/3-x+y,1/3-z
16 2/3+x-y,1/3+x,1/3-z
17 y,x,1/2-z
18 1/3+y,2/3+x,1/6-z
19 -x,-y,-z
20 1/3-x,2/3-y,2/3-z
21 2/3-x,1/3-y,1/3-z
22 y,-x+y,-z
23 1/3+y,2/3-x+y,2/3-z
24 x-y,x,-z
25 1/3+x-y,2/3+x,2/3-z
26 2/3+y,1/3+x,5/6-z
27 -x,-x+y,1/2-z
28 1/3-x,2/3-x+y,1/6-z
29 2/3-x,1/3-x+y,5/6-z
30 x-y,-y,1/2-z
31 1/3+x-y,2/3-y,1/6-z
32 2/3+x-y,1/3-y,5/6-z
33 1/3-y,2/3+x-y,2/3+z
34 1/3-x+y,2/3-x,2/3+z
35 -y,-x,1/2+z
36 2/3-y,1/3-x,5/6+z
_cell_length_a                   22.6143(5)
_cell_length_b                   22.6143(5)
_cell_length_c                   106.038(2)
_cell_angle_alpha                90
_cell_angle_beta                 90
_cell_angle_gamma                120.0
_cell_volume                     46963.3
_exptl_crystal_colour            red
_exptl_crystal_description       tablet
_cell_formula_units_Z            12
_exptl_crystal_recrystallization_method methanol/dimethylformamide
loop_
_atom_site_label
_atom_site_type_symbol
_atom_site_fract_x
_atom_site_fract_y
_atom_site_fract_z
Ti1 Ti -0.1872(3) 0.1484(3) 0.12883(5)
Ti2 Ti 0.0000 0.0000 0.03952(9)
O1 O -0.187(1) -0.102(1) 0.1512(2)
O2 O -0.1754(8) 0.0760(9) 0.1367(2)
O3 O -0.2751(9) 0.0981(10) 0.1373(2)
O4 O 0.126(1) 0.291(1) 0.1232(2)
O5 O -0.1520(10) 0.2224(10) 0.1409(2)
O6 O -0.0904(9) 0.1912(9) 0.1250(2)
O7 O -0.056(1) 0.188(1) 0.0746(2)
O8 O -0.0512(9) 0.0289(9) 0.0292(2)
O9 O -0.0062(8) 0.0633(8) 0.0511(2)
O10 O 0.233(1) 0.201(1) 0.0759(2)
O11 O -0.221(1) 0.1977(10) 0.1177(2)
O12 O -0.1999(9) 0.0985(9) 0.1130(2)
N1 N -0.125(1) -0.007(1) 0.1394(2)
N2 N 0.022(1) 0.204(1) 0.1161(2)
N3 N -0.004(1) 0.124(1) 0.0730(2)
N4 N 0.202(1) 0.177(1) 0.0960(2)
C1 C -0.006(2) 0.062(2) 0.1392(2)
C2 C -0.061(2) -0.006(2) 0.1391(2)
C3 C -0.182(2) -0.051(2) 0.1451(3)
C4 C -0.242(1) -0.035(1) 0.1463(2)
C5 C -0.304(1) -0.0840(8) 0.1515(2)
C6 C -0.3579(9) -0.071(1) 0.1522(2)
C7 C -0.350(1) -0.010(1) 0.1477(2)
C8 C -0.288(1) 0.0391(9) 0.1425(2)
C9 C -0.2336(9) 0.026(1) 0.1418(2)
C10 C 0.113(1) 0.1868(8) 0.1062(2)
C11 C 0.1357(7) 0.1671(9) 0.0956(2)
C12 C 0.095(1) 0.1448(8) 0.0848(2)
C13 C 0.032(1) 0.1423(8) 0.0846(2)
C14 C 0.0099(7) 0.1620(9) 0.0952(2)
C15 C 0.050(1) 0.1843(8) 0.1060(2)
C16 C 0.064(2) 0.262(2) 0.1233(3)
C17 C 0.020(2) 0.277(2) 0.1321(2)
C18 C 0.0576(9) 0.332(1) 0.1402(3)
C19 C 0.024(2) 0.3528(10) 0.1486(2)
C20 C -0.047(2) 0.319(2) 0.1489(2)
C21 C -0.0848(9) 0.264(1) 0.1408(3)
C22 C -0.051(2) 0.2432(9) 0.1324(2)
C23 C -0.043(2) 0.150(2) 0.0691(3)
C24 C -0.067(1) 0.125(1) 0.0549(2)
C25 C -0.110(1) 0.1459(10) 0.0496(3)
C26 C -0.133(1) 0.128(1) 0.0372(3)
C27 C -0.112(1) 0.090(1) 0.0301(2)
C28 C -0.069(1) 0.0689(9) 0.0353(2)
C29 C -0.0468(9) 0.086(1) 0.0477(3)
C30 C 0.250(2) 0.196(2) 0.0866(4)
C31 C 0.318(1) 0.209(1) 0.0906(4)
C32 C 0.366(2) 0.224(1) 0.0809(2)
C33 C 0.432(2) 0.240(1) 0.0838(3)
C34 C 0.451(1) 0.241(1) 0.0963(4)
C35 C -0.226(2) 0.178(1) 0.1060(2)
C36 C -0.210(2) 0.1278(10) 0.1031(3)
H1 H -0.1258 0.0291 0.1350
H2 H -0.0255 0.1773 0.1180
H3 H -0.0003 0.0923 0.0677
H4 H 0.2157 0.1703 0.1040
H5 H -0.3090 -0.1259 0.1545
H6 H -0.4002 -0.1045 0.1557
H7 H -0.3869 -0.0011 0.1482
H8 H 0.1410 0.2019 0.1135
H9 H 0.1102 0.1314 0.0775
H10 H -0.0330 0.1603 0.0951
H11 H 0.1060 0.3549 0.1400
H12 H 0.0501 0.3902 0.1541
H13 H -0.0696 0.3333 0.1547
H14 H -0.1242 0.1721 0.0545
H15 H -0.1622 0.1427 0.0336
H16 H -0.1278 0.0781 0.0216
H17 H 0.3525 0.2233 0.0724
H18 H 0.4644 0.2501 0.0772
H19 H 0.4967 0.2518 0.0983
C2E C 0.055(3) 0.061(2) 0.1391(2)
N1E N 0.118(1) 0.125(1) 0.1394(2)
C3E C 0.131(3) 0.182(2) 0.1451(3)
O1E O 0.085(1) 0.187(1) 0.1512(2)
C4E C 0.207(1) 0.242(1) 0.1463(2)
C5E C 0.2200(13) 0.304(1) 0.1515(2)
C6E C 0.2869(13) 0.3579(9) 0.1522(2)
C7E C 0.340(1) 0.350(1) 0.1477(2)
C8E C 0.3271(13) 0.288(1) 0.1425(2)
O3E O 0.3732(13) 0.2751(9) 0.1373(2)
Ti1E Ti 0.3356(4) 0.1872(3) 0.12883(5)
O2E O 0.2514(12) 0.1754(8) 0.1367(2)
C9E C 0.2596(13) 0.2336(9) 0.1418(2)
O5E O 0.3744(14) 0.1520(10) 0.1409(2)
C21E C 0.3488(13) 0.0848(9) 0.1408(3)
C20E C 0.366(3) 0.047(2) 0.1489(2)
C19E C 0.3288(22) -0.024(2) 0.1486(2)
C18E C 0.2744(13) -0.0576(9) 0.1402(3)
C17E C 0.257(3) -0.020(2) 0.1321(2)
C16E C 0.198(3) -0.064(2) 0.1233(3)
O4E O 0.165(1) -0.126(1) 0.1232(2)
N2E N 0.182(1) -0.022(1) 0.1161(2)
C15E C 0.1343(13) -0.050(1) 0.1060(2)
C10E C 0.0738(13) -0.113(1) 0.1062(2)
C11E C 0.0314(11) -0.1357(7) 0.0956(2)
N4E N -0.025(1) -0.202(1) 0.0960(2)
C30E C -0.054(3) -0.250(2) 0.0866(4)
O10E O -0.032(1) -0.233(1) 0.0759(2)
C31E C -0.109(1) -0.318(1) 0.0906(4)
C32E C -0.142(2) -0.366(2) 0.0809(2)
C33E C -0.192(2) -0.432(2) 0.0838(3)
C34E C -0.210(1) -0.451(1) 0.0963(4)
C35C C -0.178(1) -0.404(2) 0.1060(2)
O11C O -0.1977(10) -0.4187(14) 0.1177(2)
Ti1C Ti -0.1484(3) -0.3356(4) 0.12883(5)
O2C O -0.0760(9) -0.2514(12) 0.1367(2)
C9C C -0.026(1) -0.2596(13) 0.1418(2)
C4C C 0.035(1) -0.207(1) 0.1463(2)
C3C C 0.051(2) -0.131(3) 0.1451(3)
O1C O 0.102(1) -0.085(1) 0.1512(2)
N1C N 0.007(1) -0.118(1) 0.1394(2)
C2C C 0.006(2) -0.055(3) 0.1391(2)
C1C C -0.062(2) -0.068(3) 0.1392(2)
C1E C 0.068(3) 0.006(2) 0.1392(2)
H1C H -0.0291 -0.1549 0.1350
C5C C 0.0840(8) -0.2200(13) 0.1515(2)
C6C C 0.071(1) -0.2869(13) 0.1522(2)
C7C C 0.010(1) -0.340(1) 0.1477(2)
C8C C -0.0391(9) -0.3271(13) 0.1425(2)
O3C O -0.0981(10) -0.3732(13) 0.1373(2)
O5C O -0.2224(10) -0.3744(14) 0.1409(2)
C21C C -0.264(1) -0.3488(13) 0.1408(3)
C20C C -0.319(2) -0.366(3) 0.1489(2)
C19C C -0.3528(10) -0.3288(22) 0.1486(2)
C18C C -0.332(1) -0.2744(13) 0.1402(3)
C17C C -0.277(2) -0.257(3) 0.1321(2)
C16C C -0.262(2) -0.198(3) 0.1233(3)
O4C O -0.291(1) -0.165(1) 0.1232(2)
N2C N -0.204(1) -0.182(1) 0.1161(2)
C15C C -0.1843(8) -0.1343(13) 0.1060(2)
C10C C -0.1868(8) -0.0738(13) 0.1062(2)
C11C C -0.1671(9) -0.0314(11) 0.0956(2)
N4C N -0.177(1) 0.025(1) 0.0960(2)
C30C C -0.196(2) 0.054(3) 0.0866(4)
O10C O -0.201(1) 0.032(1) 0.0759(2)
C31C C -0.209(1) 0.109(1) 0.0906(4)
C32C C -0.224(1) 0.142(2) 0.0809(2)
C33C C -0.240(1) 0.192(2) 0.0838(3)
C34C C -0.241(1) 0.210(1) 0.0963(4)
C35E C 0.404(2) 0.226(2) 0.1060(2)
O11E O 0.4187(14) 0.221(1) 0.1177(2)
O6E O 0.2816(13) 0.0904(9) 0.1250(2)
C22E C 0.2942(22) 0.051(2) 0.1324(2)
O12E O 0.2984(13) 0.1999(9) 0.1130(2)
C36E C 0.3378(22) 0.210(2) 0.1031(3)
O8C O -0.0289(9) -0.0801(13) 0.0292(2)
C28C C -0.0689(9) -0.1379(13) 0.0353(2)
C27C C -0.090(1) -0.202(1) 0.0301(2)
C26C C -0.128(1) -0.261(1) 0.0372(3)
C25C C -0.1459(10) -0.2559(14) 0.0496(3)
C24C C -0.125(1) -0.192(1) 0.0549(2)
C23C C -0.150(2) -0.193(3) 0.0691(3)
O7C O -0.188(1) -0.244(1) 0.0746(2)
N3C N -0.124(1) -0.128(1) 0.0730(2)
C13C C -0.1423(8) -0.1103(13) 0.0846(2)
C12C C -0.1448(8) -0.0498(13) 0.0848(2)
H9C H -0.1314 -0.0212 0.0775
C14C C -0.1620(9) -0.1521(11) 0.0952(2)
H10C H -0.1603 -0.1933 0.0951
H3C H -0.0923 -0.0926 0.0677
C29C C -0.086(1) -0.1328(13) 0.0477(3)
O9C O -0.0633(8) -0.0695(11) 0.0511(2)
O8E O 0.0801(13) 0.0512(9) 0.0292(2)
C28E C 0.1379(13) 0.069(1) 0.0353(2)
C27E C 0.202(1) 0.112(1) 0.0301(2)
C26E C 0.261(1) 0.133(1) 0.0372(3)
C25E C 0.2559(14) 0.110(1) 0.0496(3)
C24E C 0.192(1) 0.067(1) 0.0549(2)
C23E C 0.193(3) 0.043(2) 0.0691(3)
O7E O 0.244(1) 0.056(1) 0.0746(2)
N3E N 0.128(1) 0.004(1) 0.0730(2)
C13E C 0.1103(13) -0.032(1) 0.0846(2)
C12E C 0.0498(13) -0.095(1) 0.0848(2)
H9E H 0.0212 -0.1102 0.0775
C14E C 0.1521(11) -0.0099(7) 0.0952(2)
H10E H 0.1933 0.0330 0.0951
H3E H 0.0926 0.0003 0.0677
C29E C 0.1328(13) 0.0468(9) 0.0477(3)
O9E O 0.0695(11) 0.0062(8) 0.0511(2)
H14E H 0.2963 0.1242 0.0545
H15E H 0.3049 0.1622 0.0336
H16E H 0.2059 0.1278 0.0216
H14C H -0.1721 -0.2963 0.0545
H15C H -0.1427 -0.3049 0.0336
H16C H -0.0781 -0.2059 0.0216
H19C H -0.2518 0.2449 0.0983
H18C H -0.2501 0.2143 0.0772
H17C H -0.2233 0.1292 0.0724
H4C H -0.1703 0.0454 0.1040
H8C H -0.2019 -0.0609 0.1135
H2C H -0.1773 -0.2028 0.1180
C22C C -0.2432(9) -0.2942(22) 0.1324(2)
O6C O -0.1912(9) -0.2816(13) 0.1250(2)
O12C O -0.0985(9) -0.2984(13) 0.1130(2)
C36C C -0.1278(10) -0.3378(22) 0.1031(3)
H11C H -0.3549 -0.2489 0.1400
H12C H -0.3902 -0.3401 0.1541
H13C H -0.3333 -0.4029 0.1547
H7C H 0.0011 -0.3858 0.1482
H6C H 0.1045 -0.2957 0.1557
H5C H 0.1259 -0.1831 0.1545
H19E H -0.2449 -0.4967 0.0983
H18E H -0.2143 -0.4644 0.0772
H17E H -0.1292 -0.3525 0.0724
H4E H -0.0454 -0.2157 0.1040
H8E H 0.0609 -0.1410 0.1135
H2E H 0.2028 0.0255 0.1180
H11E H 0.2489 -0.1060 0.1400
H12E H 0.3401 -0.0501 0.1541
H13E H 0.4029 0.0696 0.1547
H7E H 0.3858 0.3869 0.1482
H6E H 0.2957 0.4002 0.1557
H5E H 0.1831 0.3090 0.1545
H1E H 0.1549 0.1258 0.1350
N5? N 0.205(2) 0.286(2) 0.0568(4)
N6? N -0.263(2) 0.209(2) 0.1592(4)
C37? C 0.276(2) 0.320(2) 0.0523(4)
C38? C 0.298(3) 0.277(4) 0.0516(6)
C39? C 0.161(2) 0.220(2) 0.0506(4)
C40? C 0.144(4) 0.232(4) 0.0395(8)
C41? C -0.259(2) 0.164(2) 0.1695(4)
C42? C -0.259(3) 0.276(3) 0.1608(5)
C43? C 0.103(7) 0.337(7) 0.0896(9)
C44? C 0.028(4) 0.3333 0.0833
C45? C -0.047(7) 0.333(10) 0.090(2)
C46? C -0.034(8) 0.305(10) 0.097(1)
C47? C -0.393(3) 0.120(3) 0.1208(5)
C48? C -0.424(5) 0.168(4) 0.1288(8)
C49? C -0.489(5) 0.134(5) 0.1222(9)
C50? C -0.072(4) -0.057(6) -0.0022(9)
C51? C -0.145(4) -0.073(4) 0.0065(7)
C52? C -0.171(5) -0.125(5) 0.0070(9)
C53? C -0.365(6) 0.153(5) 0.1580(9)
C54? C -0.419(2) 0.106(2) 0.1550(4)
C55? C -0.070(4) 0.322(3) 0.0632(6)
C56? C -0.004(10) 0.377(8) 0.074(2)
C57? C -0.461(2) 0.264(2) 0.1288(3)
C58? C 0.191(4) 0.316(5) 0.0739(8)
C59? C 0.0000 0.0000 0.2500
loop_
_geom_bond_atom_site_label_1
_geom_bond_atom_site_label_2
_geom_bond_site_symmetry_1
_geom_bond_site_symmetry_2
Ti1 O2 1_555 1_555
Ti2 O8 1_555 1_555
O1 C3 1_555 1_555
O2 C9 1_555 1_555
O3 Ti1 1_555 1_555
O4 C16 1_555 1_555
O5 Ti1 1_555 1_555
O6 Ti1 1_555 1_555
O7 C23 1_555 1_555
O8 C28 1_555 1_555
O9 Ti2 1_555 1_555
O10 C30 1_555 1_555
O11 Ti1 1_555 1_555
O12 Ti1 1_555 1_555
N1 C2 1_555 1_555
N2 C15 1_555 1_555
N3 C13 1_555 1_555
N4 C11 1_555 1_555
C1 C2 1_555 1_555
C2 C1C 1_555 1_555
C3 N1 1_555 1_555
C4 C3 1_555 1_555
C5 C4 1_555 1_555
C6 C5 1_555 1_555
C7 C6 1_555 1_555
C8 O3 1_555 1_555
C9 C4 1_555 1_555
C10 C11 1_555 1_555
C11 C12 1_555 1_555
C12 C13 1_555 1_555
C13 C14 1_555 1_555
C14 C15 1_555 1_555
C15 C10 1_555 1_555
C16 N2 1_555 1_555
C17 C16 1_555 1_555
C18 C17 1_555 1_555
C19 C18 1_555 1_555
C20 C19 1_555 1_555
C21 O5 1_555 1_555
C22 O6 1_555 1_555
C23 N3 1_555 1_555
C24 C23 1_555 1_555
C25 C24 1_555 1_555
C26 C25 1_555 1_555
C27 C26 1_555 1_555
C28 C27 1_555 1_555
C29 O9 1_555 1_555
C30 N4 1_555 1_555
C31 C30 1_555 1_555
C32 C31 1_555 1_555
C33 C32 1_555 1_555
C34 C33 1_555 1_555
C35 O11 1_555 1_555
C36 O12 1_555 1_555
H1 N1 1_555 1_555
H2 N2 1_555 1_555
H3 N3 1_555 1_555
H4 N4 1_555 1_555
H5 C5 1_555 1_555
H6 C6 1_555 1_555
H7 C7 1_555 1_555
H8 C10 1_555 1_555
H9 C12 1_555 1_555
H10 C14 1_555 1_555
H11 C18 1_555 1_555
H12 C19 1_555 1_555
H13 C20 1_555 1_555
H14 C25 1_555 1_555
H15 C26 1_555 1_555
H16 C27 1_555 1_555
H17 C32 1_555 1_555
H18 C33 1_555 1_555
H19 C34 1_555 1_555
C2E C1 1_555 1_555
N1E C2E 1_555 1_555
C3E N1E 1_555 1_555
O1E C3E 1_555 1_555
C4E C3E 1_555 1_555
C5E C4E 1_555 1_555
C6E C5E 1_555 1_555
C7E C6E 1_555 1_555
C8E C7E 1_555 1_555
O3E C8E 1_555 1_555
Ti1E O3E 1_555 1_555
O2E Ti1E 1_555 1_555
C9E C4E 1_555 1_555
O5E Ti1E 1_555 1_555
C21E O5E 1_555 1_555
C20E C21E 1_555 1_555
C19E C20E 1_555 1_555
C18E C19E 1_555 1_555
C17E C18E 1_555 1_555
C16E C17E 1_555 1_555
O4E C16E 1_555 1_555
N2E C16E 1_555 1_555
C15E N2E 1_555 1_555
C10E C15E 1_555 1_555
C11E C10E 1_555 1_555
N4E C11E 1_555 1_555
C30E N4E 1_555 1_555
O10E C30E 1_555 1_555
C31E C30E 1_555 1_555
C32E C31E 1_555 1_555
C33E C32E 1_555 1_555
C34E C33E 1_555 1_555
C35C C34E 1_555 1_555
O11C C35C 1_555 1_555
Ti1C O11C 1_555 1_555
O2C Ti1C 1_555 1_555
C9C O2C 1_555 1_555
C4C C9C 1_555 1_555
C3C C4C 1_555 1_555
O1C C3C 1_555 1_555
N1C C3C 1_555 1_555
C2C N1C 1_555 1_555
C1C C2C 1_555 1_555
C1E C2E 1_555 1_555
H1C N1C 1_555 1_555
C5C C4C 1_555 1_555
C6C C5C 1_555 1_555
C7C C6C 1_555 1_555
C8C C9C 1_555 1_555
O3C Ti1C 1_555 1_555
O5C Ti1C 1_555 1_555
C21C O5C 1_555 1_555
C20C C21C 1_555 1_555
C19C C20C 1_555 1_555
C18C C19C 1_555 1_555
C17C C18C 1_555 1_555
C16C C17C 1_555 1_555
O4C C16C 1_555 1_555
N2C C16C 1_555 1_555
C15C N2C 1_555 1_555
C10C C15C 1_555 1_555
C11C C10C 1_555 1_555
N4C C11C 1_555 1_555
C30C N4C 1_555 1_555
O10C C30C 1_555 1_555
C31C C36 1_555 1_555
C32C C31C 1_555 1_555
C33C C32C 1_555 1_555
C34C C35 1_555 1_555
C35E C34 1_555 1_555
O11E Ti1E 1_555 1_555
O6E Ti1E 1_555 1_555
C22E C21E 1_555 1_555
O12E Ti1E 1_555 1_555
C36E C31 1_555 1_555
O8C Ti2 1_555 1_555
C28C O8C 1_555 1_555
C27C C28C 1_555 1_555
C26C C27C 1_555 1_555
C25C C26C 1_555 1_555
C24C C25C 1_555 1_555
C23C C24C 1_555 1_555
O7C C23C 1_555 1_555
N3C C23C 1_555 1_555
C13C N3C 1_555 1_555
C12C C11C 1_555 1_555
H9C C12C 1_555 1_555
C14C C15C 1_555 1_555
H10C C14C 1_555 1_555
H3C N3C 1_555 1_555
C29C C28C 1_555 1_555
O9C Ti2 1_555 1_555
O8E Ti2 1_555 1_555
C28E O8E 1_555 1_555
C27E C28E 1_555 1_555
C26E C27E 1_555 1_555
C25E C26E 1_555 1_555
C24E C25E 1_555 1_555
C23E C24E 1_555 1_555
O7E C23E 1_555 1_555
N3E C23E 1_555 1_555
C13E N3E 1_555 1_555
C12E C11E 1_555 1_555
H9E C12E 1_555 1_555
C14E C15E 1_555 1_555
H10E C14E 1_555 1_555
H3E N3E 1_555 1_555
C29E C28E 1_555 1_555
O9E Ti2 1_555 1_555
H14E C25E 1_555 1_555
H15E C26E 1_555 1_555
H16E C27E 1_555 1_555
H14C C25C 1_555 1_555
H15C C26C 1_555 1_555
H16C C27C 1_555 1_555
H19C C34C 1_555 1_555
H18C C33C 1_555 1_555
H17C C32C 1_555 1_555
H4C N4C 1_555 1_555
H8C C10C 1_555 1_555
H2C N2C 1_555 1_555
C22C C21C 1_555 1_555
O6C Ti1C 1_555 1_555
O12C Ti1C 1_555 1_555
C36C C31E 1_555 1_555
H11C C18C 1_555 1_555
H12C C19C 1_555 1_555
H13C C20C 1_555 1_555
H7C C7C 1_555 1_555
H6C C6C 1_555 1_555
H5C C5C 1_555 1_555
H19E C34E 1_555 1_555
H18E C33E 1_555 1_555
H17E C32E 1_555 1_555
H4E N4E 1_555 1_555
H8E C10E 1_555 1_555
H2E N2E 1_555 1_555
H11E C18E 1_555 1_555
H12E C19E 1_555 1_555
H13E C20E 1_555 1_555
H7E C7E 1_555 1_555
H6E C6E 1_555 1_555
H5E C5E 1_555 1_555
H1E N1E 1_555 1_555
C7 C8 1_555 1_555
C8 C9 1_555 1_555
C17 C22 1_555 1_555
C20 C21 1_555 1_555
C21 C22 1_555 1_555
C24 C29 1_555 1_555
C28 C29 1_555 1_555
C35 C36 1_555 1_555
C8E C9E 1_555 1_555
O2E C9E 1_555 1_555
C17E C22E 1_555 1_555
C35C C36C 1_555 1_555
C2C C1E 1_555 1_555
C7C C8C 1_555 1_555
C8C O3C 1_555 1_555
C17C C22C 1_555 1_555
C30C C31C 1_555 1_555
C33C C34C 1_555 1_555
C35E O11E 1_555 1_555
C35E C36E 1_555 1_555
O6E C22E 1_555 1_555
O12E C36E 1_555 1_555
C24C C29C 1_555 1_555
C13C C12C 1_555 1_555
C13C C14C 1_555 1_555
C29C O9C 1_555 1_555
C24E C29E 1_555 1_555
C13E C12E 1_555 1_555
C13E C14E 1_555 1_555
C29E O9E 1_555 1_555
C22C O6C 1_555 1_555
O12C C36C 1_555 1_555

#END
