
#######################################################################
#
#                 Cambridge Crystallographic Data Centre
#                                CCDC 
#
#######################################################################
#
# If this CIF has been generated from an entry in the Cambridge 
# Structural Database, then it will include bibliographic, chemical, 
# crystal, experimental, refinement or atomic coordinate data resulting 
# from the CCDC's data processing and validation procedures.
#
#######################################################################

data_GAWHUJ
_chemical_formula_moiety         
'C40 H72 N8 O2 Pd2 Si4 4+,5(C4 H8 O2),4(F6 P1 1-)'
_chemical_name_systematic        
"bis(\m~2~-4,4'-(1,1,3,3-Tetramethyldisiloxane-1,3-diyl)dipyridine)-bis(1,2-bis(dimethylamino)ethane-N,N')-di-palladium(ii) 1,4-dioxane clathrate tetrakis(hexafluorophosphate) 1,4-dioxane solvate"
_symmetry_cell_setting           monoclinic
_symmetry_space_group_name_H-M   'P 21/c'
_symmetry_Int_Tables_number      14
_space_group_name_Hall           '-P 2ybc'
loop_
_symmetry_equiv_pos_site_id
_symmetry_equiv_pos_as_xyz
1 x,y,z
2 -x,1/2+y,1/2-z
3 -x,-y,-z
4 x,1/2-y,1/2+z
_cell_length_a                   15.2470(3)
_cell_length_b                   12.5358(3)
_cell_length_c                   23.8556(5)
_cell_angle_alpha                90
_cell_angle_beta                 96.875(1)
_cell_angle_gamma                90
_cell_volume                     4526.82
_exptl_crystal_colour            colorless
_exptl_crystal_description       block
_cell_formula_units_Z            2
loop_
_atom_site_label
_atom_site_type_symbol
_atom_site_fract_x
_atom_site_fract_y
_atom_site_fract_z
Pd1 Pd -0.261826(19) 0.32035(2) 0.536043(14)
Si1 Si -0.14247(8) -0.14993(9) 0.65727(5)
Si2 Si 0.06920(8) -0.15144(9) 0.68625(5)
O1 O -0.03560(19) -0.1393(3) 0.66614(14)
N1 N -0.2334(2) 0.1808(2) 0.57802(15)
N2 N -0.1996(2) 0.2614(2) 0.47230(14)
N3 N -0.3285(2) 0.3842(3) 0.59885(17)
N4 N -0.2909(2) 0.4624(3) 0.49304(16)
C1 C -0.1601(3) 0.1720(3) 0.61491(19)
H1 H -0.1253 0.2338 0.6241
C2 C -0.1335(3) 0.0761(3) 0.63988(18)
H2 H -0.0817 0.0733 0.6662
C3 C -0.1821(3) -0.0167(3) 0.62679(17)
C4 C -0.2582(3) -0.0053(3) 0.5887(2)
H3 H -0.2940 -0.0659 0.5786
C5 C -0.2822(3) 0.0927(3) 0.5656(2)
H4 H -0.3348 0.0981 0.5401
C6 C -0.1864(4) -0.1747(5) 0.7239(2)
H5 H -0.1601 -0.2401 0.7411
H6 H -0.2507 -0.1829 0.7169
H7 H -0.1719 -0.1144 0.7495
C7 C -0.1778(3) -0.2564(4) 0.6063(2)
H8 H -0.1594 -0.2384 0.5694
H9 H -0.2422 -0.2634 0.6027
H10 H -0.1505 -0.3240 0.6196
C8 C 0.1144(3) -0.0216(4) 0.7138(2)
H11 H 0.1013 0.0335 0.6848
H12 H 0.1785 -0.0277 0.7234
H13 H 0.0873 -0.0022 0.7476
C9 C 0.0902(4) -0.2604(4) 0.7376(2)
H14 H 0.0611 -0.2446 0.7711
H15 H 0.1540 -0.2675 0.7485
H16 H 0.0668 -0.3273 0.7205
C10 C 0.1214(3) -0.1902(3) 0.62118(18)
C11 C 0.2072(3) -0.1605(3) 0.6126(2)
H17 H 0.2401 -0.1146 0.6390
C12 C -0.2441(3) 0.1967(3) 0.4332(2)
H18 H -0.3027 0.1759 0.4378
C13 C -0.1166(3) 0.2878(3) 0.46644(18)
H19 H -0.0845 0.3314 0.4943
C14 C 0.0761(3) -0.2536(3) 0.57922(18)
H20 H 0.0166 -0.2734 0.5820
C15 C -0.2814(4) 0.3758(5) 0.6567(2)
H21 H -0.3148 0.4138 0.6831
H22 H -0.2225 0.4075 0.6577
H23 H -0.2757 0.3005 0.6677
C16 C -0.4157(3) 0.3303(4) 0.5986(3)
H24 H -0.4065 0.2541 0.6065
H25 H -0.4502 0.3392 0.5615
H26 H -0.4478 0.3621 0.6277
C17 C -0.3418(4) 0.4987(4) 0.5844(3)
H27 H -0.2878 0.5394 0.5981
H28 H -0.3912 0.5273 0.6033
C18 C -0.3620(4) 0.5120(4) 0.5222(3)
H29 H -0.3667 0.5889 0.5127
H30 H -0.4193 0.4779 0.5090
C19 C -0.2116(3) 0.5326(3) 0.4981(2)
H31 H -0.2278 0.6025 0.4816
H32 H -0.1660 0.5002 0.4779
H33 H -0.1889 0.5413 0.5380
C20 C -0.3226(3) 0.4503(4) 0.4327(2)
H34 H -0.3695 0.3964 0.4280
H35 H -0.2736 0.4279 0.4123
H36 H -0.3460 0.5187 0.4175
Pd1B Pd 0.261826(19) -0.32035(2) 0.463957(14)
Si1B Si 0.14247(8) 0.14993(9) 0.34273(5)
Si2B Si -0.06920(8) 0.15144(9) 0.31375(5)
O1B O 0.03560(19) 0.1393(3) 0.33386(14)
N1B N 0.2334(2) -0.1808(2) 0.42198(15)
N2B N 0.1996(2) -0.2614(2) 0.52770(14)
N3B N 0.3285(2) -0.3842(3) 0.40115(17)
N4B N 0.2909(2) -0.4624(3) 0.50696(16)
C1B C 0.1601(3) -0.1720(3) 0.38509(19)
H1B H 0.1253 -0.2338 0.3759
C2B C 0.1335(3) -0.0761(3) 0.36012(18)
H2B H 0.0817 -0.0733 0.3338
C3B C 0.1821(3) 0.0167(3) 0.37321(17)
C4B C 0.2582(3) 0.0053(3) 0.4113(2)
H3B H 0.2940 0.0659 0.4214
C5B C 0.2822(3) -0.0927(3) 0.4344(2)
H4B H 0.3348 -0.0981 0.4599
C6B C 0.1864(4) 0.1747(5) 0.2761(2)
H5B H 0.1601 0.2401 0.2589
H6B H 0.2507 0.1829 0.2831
H7B H 0.1719 0.1144 0.2505
C7B C 0.1778(3) 0.2564(4) 0.3937(2)
H8B H 0.1594 0.2384 0.4306
H9B H 0.2422 0.2634 0.3973
H10B H 0.1505 0.3240 0.3804
C8B C -0.1144(3) 0.0216(4) 0.2862(2)
H11B H -0.1013 -0.0335 0.3152
H12B H -0.1785 0.0277 0.2766
H13B H -0.0873 0.0022 0.2524
C9B C -0.0902(4) 0.2604(4) 0.2624(2)
H14B H -0.0611 0.2446 0.2289
H15B H -0.1540 0.2675 0.2515
H16B H -0.0668 0.3273 0.2795
C10B C -0.1214(3) 0.1902(3) 0.37882(18)
C11B C -0.2072(3) 0.1605(3) 0.3874(2)
H17B H -0.2401 0.1146 0.3610
C12B C 0.2441(3) -0.1967(3) 0.5668(2)
H18B H 0.3027 -0.1759 0.5622
C13B C 0.1166(3) -0.2878(3) 0.53356(18)
H19B H 0.0845 -0.3314 0.5057
C14B C -0.0761(3) 0.2536(3) 0.42078(18)
H20B H -0.0166 0.2734 0.4180
C15B C 0.2814(4) -0.3758(5) 0.3433(2)
H21B H 0.3148 -0.4138 0.3169
H22B H 0.2225 -0.4075 0.3423
H23B H 0.2757 -0.3005 0.3323
C16B C 0.4157(3) -0.3303(4) 0.4014(3)
H24B H 0.4065 -0.2541 0.3935
H25B H 0.4502 -0.3392 0.4385
H26B H 0.4478 -0.3621 0.3723
C17B C 0.3418(4) -0.4987(4) 0.4156(3)
H27B H 0.2878 -0.5394 0.4019
H28B H 0.3912 -0.5273 0.3967
C18B C 0.3620(4) -0.5120(4) 0.4778(3)
H29B H 0.3667 -0.5889 0.4873
H30B H 0.4193 -0.4779 0.4910
C19B C 0.2116(3) -0.5326(3) 0.5019(2)
H31B H 0.2278 -0.6025 0.5184
H32B H 0.1660 -0.5002 0.5221
H33B H 0.1889 -0.5413 0.4620
C20B C 0.3226(3) -0.4503(4) 0.5673(2)
H34B H 0.3695 -0.3964 0.5720
H35B H 0.2736 -0.4279 0.5877
H36B H 0.3460 -0.5187 0.5825
P1 P -0.52298(7) 0.18909(10) 0.42246(6)
F1 F -0.5950(2) 0.1887(3) 0.36902(16)
F2 F -0.5113(3) 0.3133(3) 0.4174(3)
F3 F -0.5991(2) 0.2062(3) 0.46144(15)
F4 F -0.5341(3) 0.0653(3) 0.4276(2)
F5 F -0.4470(2) 0.1725(3) 0.38363(16)
F6 F -0.4499(2) 0.1896(4) 0.47585(15)
P2 P -0.01683(9) 0.56167(11) 0.38101(6)
F7 F 0.0110(4) 0.4628(6) 0.3472(3)
F8 F 0.0840(2) 0.5920(3) 0.3952(2)
F9 F -0.0063(3) 0.4857(4) 0.4340(2)
F10 F -0.1179(2) 0.5325(4) 0.36865(18)
F11 F -0.0240(4) 0.6382(8) 0.3316(3)
F12 F -0.0400(4) 0.6513(4) 0.4225(3)
O2 O 0.0721(2) -0.0600(3) 0.48477(16)
C21 C -0.0148(4) -0.0698(5) 0.4556(3)
H37 H -0.0239 -0.1434 0.4410
H38 H -0.0217 -0.0203 0.4230
C22 C 0.0835(4) 0.0445(4) 0.5056(3)
H39 H 0.0780 0.0955 0.4736
H40 H 0.1433 0.0522 0.5264
O2B O -0.0721(2) 0.0600(3) 0.51523(16)
C21B C 0.0148(4) 0.0698(5) 0.5444(3)
H37B H 0.0239 0.1434 0.5590
H38B H 0.0217 0.0203 0.5770
C22B C -0.0835(4) -0.0445(4) 0.4944(3)
H39B H -0.0780 -0.0955 0.5264
H40B H -0.1433 -0.0522 0.4736
O3 O -0.7351(3) 0.4043(3) 0.1201(2)
O4 O -0.6376(3) 0.2216(3) 0.1012(2)
C23 C -0.7690(5) 0.2995(5) 0.1253(3)
H41 H -0.8008 0.2767 0.0886
H42 H -0.8115 0.2996 0.1536
C24 C -0.6974(5) 0.2242(5) 0.1427(3)
H43 H -0.6657 0.2464 0.1795
H44 H -0.7221 0.1522 0.1471
C25 C -0.6014(4) 0.3243(5) 0.0961(3)
H45 H -0.5596 0.3231 0.0674
H46 H -0.5684 0.3459 0.1326
C26 C -0.6726(4) 0.4022(5) 0.0794(3)
H47 H -0.6467 0.4741 0.0765
H48 H -0.7033 0.3828 0.0419
O5 O -0.4917(14) 0.380(2) 0.2752(8)
O6 O -0.3622(17) 0.439(2) 0.2238(10)
C27 C -0.4296(17) 0.3028(10) 0.2641(6)
H49 H -0.3898 0.2866 0.2989
H50 H -0.4601 0.2362 0.2507
C28 C -0.3808(14) 0.3430(8) 0.2225(6)
H51 H -0.3248 0.3024 0.2246
H52 H -0.4143 0.3276 0.1852
C29 C -0.4303(14) 0.5115(12) 0.2385(6)
H53 H -0.4032 0.5822 0.2473
H54 H -0.4749 0.5202 0.2050
C30 C -0.4742(9) 0.4794(9) 0.2845(5)
H55 H -0.4357 0.4889 0.3206
H56 H -0.5290 0.5210 0.2858
loop_
_geom_bond_atom_site_label_1
_geom_bond_atom_site_label_2
_geom_bond_site_symmetry_1
_geom_bond_site_symmetry_2
Pd1 N1 1_555 1_555
Si1 O1 1_555 1_555
Si2 O1 1_555 1_555
P1 F1 1_555 1_555
P2 F7 1_555 1_555
F2 P1 1_555 1_555
F3 P1 1_555 1_555
F4 P1 1_555 1_555
F5 P1 1_555 1_555
F6 P1 1_555 1_555
F8 P2 1_555 1_555
F9 P2 1_555 1_555
F10 P2 1_555 1_555
F11 P2 1_555 1_555
F12 P2 1_555 1_555
O2 C21 1_555 1_555
O3 C23 1_555 1_555
O4 C24 1_555 1_555
O5 C27 1_555 1_555
O6 C28 1_555 1_555
N1 C1 1_555 1_555
N2 Pd1 1_555 1_555
N3 Pd1 1_555 1_555
N4 Pd1 1_555 1_555
C1 H1 1_555 1_555
C2 C1 1_555 1_555
H2 C2 1_555 1_555
C3 Si1 1_555 1_555
C4 C3 1_555 1_555
H3 C4 1_555 1_555
C5 N1 1_555 1_555
H4 C5 1_555 1_555
C6 Si1 1_555 1_555
H5 C6 1_555 1_555
H6 C6 1_555 1_555
H7 C6 1_555 1_555
C7 Si1 1_555 1_555
H8 C7 1_555 1_555
H9 C7 1_555 1_555
H10 C7 1_555 1_555
C8 Si2 1_555 1_555
H11 C8 1_555 1_555
H12 C8 1_555 1_555
H13 C8 1_555 1_555
C9 Si2 1_555 1_555
H14 C9 1_555 1_555
H15 C9 1_555 1_555
H16 C9 1_555 1_555
C10 Si2 1_555 1_555
C11 C10 1_555 1_555
H17 C11 1_555 1_555
C12 N2 1_555 1_555
H18 C12 1_555 1_555
C13 N2 1_555 1_555
H19 C13 1_555 1_555
C14 C10 1_555 1_555
H20 C14 1_555 1_555
C15 N3 1_555 1_555
H21 C15 1_555 1_555
H22 C15 1_555 1_555
H23 C15 1_555 1_555
C16 N3 1_555 1_555
H24 C16 1_555 1_555
H25 C16 1_555 1_555
H26 C16 1_555 1_555
C17 N3 1_555 1_555
H27 C17 1_555 1_555
H28 C17 1_555 1_555
C18 N4 1_555 1_555
H29 C18 1_555 1_555
H30 C18 1_555 1_555
C19 N4 1_555 1_555
H31 C19 1_555 1_555
H32 C19 1_555 1_555
H33 C19 1_555 1_555
C20 N4 1_555 1_555
H34 C20 1_555 1_555
H35 C20 1_555 1_555
H36 C20 1_555 1_555
C21 H37 1_555 1_555
H38 C21 1_555 1_555
C22 O2 1_555 1_555
H39 C22 1_555 1_555
H40 C22 1_555 1_555
C23 H41 1_555 1_555
H42 C23 1_555 1_555
C24 C23 1_555 1_555
H43 C24 1_555 1_555
H44 C24 1_555 1_555
C25 O4 1_555 1_555
H45 C25 1_555 1_555
H46 C25 1_555 1_555
C26 O3 1_555 1_555
H47 C26 1_555 1_555
H48 C26 1_555 1_555
C27 H49 1_555 1_555
H50 C27 1_555 1_555
C28 C27 1_555 1_555
H51 C28 1_555 1_555
H52 C28 1_555 1_555
C29 O6 1_555 1_555
H53 C29 1_555 1_555
H54 C29 1_555 1_555
C30 O5 1_555 1_555
H55 C30 1_555 1_555
H56 C30 1_555 1_555
Pd1B N1B 1_555 1_555
Si1B O1B 1_555 1_555
Si2B O1B 1_555 1_555
O2B C21B 1_555 1_555
N1B C1B 1_555 1_555
N2B Pd1B 1_555 1_555
N3B Pd1B 1_555 1_555
N4B Pd1B 1_555 1_555
C1B H1B 1_555 1_555
C2B C1B 1_555 1_555
H2B C2B 1_555 1_555
C3B Si1B 1_555 1_555
C4B C3B 1_555 1_555
H3B C4B 1_555 1_555
C5B N1B 1_555 1_555
H4B C5B 1_555 1_555
C6B Si1B 1_555 1_555
H5B C6B 1_555 1_555
H6B C6B 1_555 1_555
H7B C6B 1_555 1_555
C7B Si1B 1_555 1_555
H8B C7B 1_555 1_555
H9B C7B 1_555 1_555
H10B C7B 1_555 1_555
C8B Si2B 1_555 1_555
H11B C8B 1_555 1_555
H12B C8B 1_555 1_555
H13B C8B 1_555 1_555
C9B Si2B 1_555 1_555
H14B C9B 1_555 1_555
H15B C9B 1_555 1_555
H16B C9B 1_555 1_555
C10B Si2B 1_555 1_555
C11B C12 1_555 1_555
H17B C11B 1_555 1_555
C12B C11 1_555 1_555
H18B C12B 1_555 1_555
C13B C14 1_555 1_555
H19B C13B 1_555 1_555
C14B C13 1_555 1_555
H20B C14B 1_555 1_555
C15B N3B 1_555 1_555
H21B C15B 1_555 1_555
H22B C15B 1_555 1_555
H23B C15B 1_555 1_555
C16B N3B 1_555 1_555
H24B C16B 1_555 1_555
H25B C16B 1_555 1_555
H26B C16B 1_555 1_555
C17B N3B 1_555 1_555
H27B C17B 1_555 1_555
H28B C17B 1_555 1_555
C18B N4B 1_555 1_555
H29B C18B 1_555 1_555
H30B C18B 1_555 1_555
C19B N4B 1_555 1_555
H31B C19B 1_555 1_555
H32B C19B 1_555 1_555
H33B C19B 1_555 1_555
C20B N4B 1_555 1_555
H34B C20B 1_555 1_555
H35B C20B 1_555 1_555
H36B C20B 1_555 1_555
C21B C22 1_555 1_555
H37B C21B 1_555 1_555
H38B C21B 1_555 1_555
C22B C21 1_555 1_555
H39B C22B 1_555 1_555
H40B C22B 1_555 1_555
C2 C3 1_555 1_555
C4 C5 1_555 1_555
C17 C18 1_555 1_555
C25 C26 1_555 1_555
C29 C30 1_555 1_555
O2B C22B 1_555 1_555
N2B C12B 1_555 1_555
N2B C13B 1_555 1_555
C2B C3B 1_555 1_555
C4B C5B 1_555 1_555
C10B C11B 1_555 1_555
C10B C14B 1_555 1_555
C17B C18B 1_555 1_555

#END
