
#######################################################################
#
#                 Cambridge Crystallographic Data Centre
#                                CCDC 
#
#######################################################################
#
# If this CIF has been generated from an entry in the Cambridge 
# Structural Database, then it will include bibliographic, chemical, 
# crystal, experimental, refinement or atomic coordinate data resulting 
# from the CCDC's data processing and validation procedures.
#
#######################################################################

data_GEQSIG
_chemical_formula_moiety         'C26 H36 N12 O2 Pd2 4+,4(N1 O3 1-),2(C4 H8 O2)'
_chemical_name_systematic        
'bis((\m~2~-1,3-dipyridin-3-ylurea)-(ethylene-1,2-diamine))-di-palladium(ii) tetranitrate 1,4-dioxane solvate'
_symmetry_cell_setting           triclinic
_symmetry_space_group_name_H-M   'P -1'
_symmetry_Int_Tables_number      2
_space_group_name_Hall           '-P 1'
loop_
_symmetry_equiv_pos_site_id
_symmetry_equiv_pos_as_xyz
1 x,y,z
2 -x,-y,-z
_cell_length_a                   11.9558(13)
_cell_length_b                   13.9593(15)
_cell_length_c                   14.9742(16)
_cell_angle_alpha                75.258(4)
_cell_angle_beta                 82.855(4)
_cell_angle_gamma                88.532(4)
_cell_volume                     2398.03
_exptl_crystal_colour            colorless
_exptl_crystal_description       block
_cell_formula_units_Z            2
loop_
_atom_site_label
_atom_site_type_symbol
_atom_site_fract_x
_atom_site_fract_y
_atom_site_fract_z
C1 C 0.3351(8) 0.3690(6) 1.1675(8)
H1 H 0.2854 0.3236 1.2146
H2 H 0.2918 0.3996 1.1172
C2 C 0.4195(7) 0.3163(9) 1.1342(8)
H3 H 0.4225 0.3335 1.0670
H4 H 0.3987 0.2468 1.1563
C3 C 0.7624(5) 0.3851(4) 1.2617(4)
H5 H 0.7189 0.3393 1.3083
C4 C 0.8763(5) 0.3875(5) 1.2620(4)
H6 H 0.9099 0.3423 1.3078
C5 C 0.9414(5) 0.4558(4) 1.1957(4)
H7 H 1.0185 0.4594 1.1977
C6 C 0.8911(4) 0.5196(4) 1.1252(4)
C7 C 0.7752(4) 0.5146(4) 1.1279(3)
H8 H 0.7400 0.5584 1.0821
C8 C 0.9241(4) 0.6592(4) 0.9858(3)
C9 C 1.0064(4) 0.7954(4) 0.8565(3)
C10 C 1.1076(5) 0.8427(5) 0.8154(4)
H9 H 1.1743 0.8215 0.8399
C11 C 1.1082(5) 0.9201(6) 0.7393(5)
H10 H 1.1758 0.9514 0.7106
C12 C 1.0082(5) 0.9523(6) 0.7044(4)
H11 H 1.0086 1.0075 0.6541
C13 C 0.9095(4) 0.8294(4) 0.8168(3)
H12 H 0.8411 0.7982 0.8433
C14 C 0.7613(5) 0.9626(5) 0.4916(3)
H13 H 0.7553 0.9258 0.4455
H14 H 0.8135 1.0173 0.4647
C15 C 0.6474(5) 1.0007(4) 0.5215(4)
H15 H 0.6227 1.0515 0.4707
H16 H 0.5925 0.9472 0.5390
C16 C 0.7466(5) 1.1370(4) 0.7665(4)
H17 H 0.7746 1.1734 0.7072
C17 C 0.7196(6) 1.1854(4) 0.8359(4)
H18 H 0.7266 1.2539 0.8231
C18 C 0.6824(5) 1.1311(4) 0.9238(4)
H19 H 0.6669 1.1623 0.9718
C19 C 0.6676(4) 1.0293(4) 0.9414(3)
C20 C 0.6936(4) 0.9857(4) 0.8682(3)
H20 H 0.6832 0.9177 0.8791
C21 C 0.6087(4) 0.8759(4) 1.0644(3)
C22 C 0.5612(4) 0.7521(4) 1.2143(3)
C23 C 0.5461(6) 0.7431(4) 1.3104(4)
H21 H 0.5483 0.7986 1.3338
C24 C 0.5277(7) 0.6492(4) 1.3699(4)
H22 H 0.5169 0.6411 1.4339
C25 C 0.5258(6) 0.5695(4) 1.3337(4)
H23 H 0.5145 0.5067 1.3738
C26 C 0.5566(4) 0.6690(4) 1.1834(3)
H24 H 0.5655 0.6747 1.1197
N1 N 0.5331(4) 0.3267(3) 1.1562(3)
H25 H 0.5833 0.3298 1.1055
H26 H 0.5497 0.2738 1.2012
N2 N 0.7121(3) 0.4482(3) 1.1946(3)
N3 N 0.9589(3) 0.5889(3) 1.0581(3)
H27 H 1.0299 0.5870 1.0627
N4 N 1.0113(3) 0.7177(3) 0.9338(3)
H28 H 1.0768 0.7043 0.9517
N5 N 0.9111(3) 0.9055(3) 0.7417(3)
N6 N 0.8013(4) 0.8970(4) 0.5763(3)
H29 H 0.8752 0.8843 0.5651
H30 H 0.7633 0.8391 0.5927
N7 N 0.6572(4) 1.0420(3) 0.6014(3)
H31 H 0.5900 1.0378 0.6367
H32 H 0.6768 1.1064 0.5808
N8 N 0.7332(4) 1.0374(3) 0.7824(3)
N9 N 0.6300(4) 0.9757(3) 1.0335(3)
H33 H 0.6193 1.0094 1.0746
N10 N 0.5803(4) 0.8479(3) 1.1591(3)
H34 H 0.5735 0.8947 1.1872
N11 N 0.5396(4) 0.5788(3) 1.2419(3)
N12 N 0.3718(4) 0.4463(3) 1.2078(3)
H35 H 0.3419 0.4343 1.2678
H36 H 0.3465 0.5054 1.1774
O1 O 0.8278(3) 0.6694(3) 0.9682(3)
O2 O 0.6141(4) 0.8203(3) 1.0147(2)
Pd1 Pd 0.54199(3) 0.45124(3) 1.19954(2)
Pd2 Pd 0.77436(3) 0.96752(3) 0.67940(2)
N13 N 0.9144(6) 0.1871(4) 0.4946(5)
O3 O 0.9782(6) 0.2154(7) 0.4271(5)
O4 O 0.9486(9) 0.1363(9) 0.5505(8)
O5 O 0.8135(6) 0.2135(5) 0.4966(6)
N14 N 0.4402(8) 0.2670(4) 0.4308(4)
O6 O 0.4426(8) 0.2024(4) 0.5014(3)
O7 O 0.3625(6) 0.2674(4) 0.3790(5)
O8 O 0.5115(5) 0.3311(4) 0.4036(3)
N15 N 0.5796(4) 0.0731(4) 0.2405(3)
O9 O 0.5669(7) 0.1283(4) 0.2914(3)
O10 O 0.5601(5) -0.0154(3) 0.2741(3)
O11 O 0.6159(5) 0.1047(3) 0.1589(3)
N16 N 0.2639(4) 0.6280(4) 0.0388(3)
O12 O 0.1923(4) 0.5813(4) 0.0978(3)
O13 O 0.2376(4) 0.6819(4) -0.0344(3)
O14 O 0.3637(3) 0.6219(4) 0.0520(3)
O15 O 0.7893(8) 0.4896(8) 0.6455(5)
O16 O 0.8501(8) 0.5375(8) 0.4545(5)
C27 C 0.7680(12) 0.4636(9) 0.4999(9)
H37 H 0.7704 0.4118 0.4671
H38 H 0.6933 0.4924 0.4997
C28 C 0.7909(11) 0.4216(9) 0.5957(9)
H39 H 0.7351 0.3707 0.6261
H40 H 0.8643 0.3902 0.5949
C29 C 0.8726(12) 0.5619(13) 0.6003(11)
H41 H 0.9465 0.5316 0.5989
H42 H 0.8728 0.6129 0.6338
C30 C 0.8475(11) 0.6050(10) 0.5065(12)
H43 H 0.7733 0.6348 0.5090
H44 H 0.9018 0.6573 0.4763
O17 O 1.0141(11) 0.7666(11) 0.1453(10)
C31 C 0.8764(18) 0.8951(13) 0.1258(14)
H45 H 0.8719 0.9666 0.1147
H46 H 0.8313 0.8742 0.0846
C32 C 0.9925(18) 0.8643(12) 0.1108(15)
H47 H 1.0163 0.8814 0.0443
H48 H 1.0387 0.9025 0.1382
O18 O 0.8396(15) 0.8504(13) 0.2163(13)
C33 C 0.8524(14) 0.7503(14) 0.2438(13)
H49 H 0.8170 0.7182 0.2041
H50 H 0.8181 0.7249 0.3075
C34 C 0.9726(14) 0.7319(12) 0.2364(10)
H51 H 1.0083 0.7658 0.2746
H52 H 0.9870 0.6615 0.2573
loop_
_geom_bond_atom_site_label_1
_geom_bond_atom_site_label_2
_geom_bond_site_symmetry_1
_geom_bond_site_symmetry_2
C1 H1 1_555 1_555
H2 C1 1_555 1_555
C2 C1 1_555 1_555
H3 C2 1_555 1_555
H4 C2 1_555 1_555
C3 H5 1_555 1_555
C4 C3 1_555 1_555
H6 C4 1_555 1_555
C5 C4 1_555 1_555
H7 C5 1_555 1_555
C6 C5 1_555 1_555
C7 C6 1_555 1_555
H8 C7 1_555 1_555
C8 N3 1_555 1_555
C9 C10 1_555 1_555
C10 H9 1_555 1_555
C11 C10 1_555 1_555
H10 C11 1_555 1_555
C12 C11 1_555 1_555
H11 C12 1_555 1_555
C13 C9 1_555 1_555
H12 C13 1_555 1_555
C14 H13 1_555 1_555
H14 C14 1_555 1_555
C15 C14 1_555 1_555
H15 C15 1_555 1_555
H16 C15 1_555 1_555
C16 H17 1_555 1_555
C17 C16 1_555 1_555
H18 C17 1_555 1_555
C18 C17 1_555 1_555
H19 C18 1_555 1_555
C19 C18 1_555 1_555
C20 C19 1_555 1_555
H20 C20 1_555 1_555
C21 N9 1_555 1_555
C22 C23 1_555 1_555
C23 H21 1_555 1_555
C24 C23 1_555 1_555
H22 C24 1_555 1_555
C25 C24 1_555 1_555
H23 C25 1_555 1_555
C26 C22 1_555 1_555
H24 C26 1_555 1_555
N1 C2 1_555 1_555
H25 N1 1_555 1_555
H26 N1 1_555 1_555
N2 C3 1_555 1_555
N3 C6 1_555 1_555
H27 N3 1_555 1_555
N4 C8 1_555 1_555
H28 N4 1_555 1_555
N5 C12 1_555 1_555
N6 C14 1_555 1_555
H29 N6 1_555 1_555
H30 N6 1_555 1_555
N7 C15 1_555 1_555
H31 N7 1_555 1_555
H32 N7 1_555 1_555
N8 C16 1_555 1_555
N9 C19 1_555 1_555
H33 N9 1_555 1_555
N10 C21 1_555 1_555
H34 N10 1_555 1_555
N11 C25 1_555 1_555
N12 C1 1_555 1_555
H35 N12 1_555 1_555
H36 N12 1_555 1_555
O1 C8 1_555 1_555
O2 C21 1_555 1_555
Pd1 N1 1_555 1_555
Pd2 N5 1_555 1_555
N13 O3 1_555 1_555
O4 N13 1_555 1_555
O5 N13 1_555 1_555
N14 O6 1_555 1_555
O7 N14 1_555 1_555
O8 N14 1_555 1_555
N15 O9 1_555 1_555
O10 N15 1_555 1_555
O11 N15 1_555 1_555
N16 O12 1_555 1_555
O13 N16 1_555 1_555
O14 N16 1_555 1_555
O15 C28 1_555 1_555
O16 C27 1_555 1_555
C27 H37 1_555 1_555
H38 C27 1_555 1_555
C28 C27 1_555 1_555
H39 C28 1_555 1_555
H40 C28 1_555 1_555
C29 O15 1_555 1_555
H41 C29 1_555 1_555
H42 C29 1_555 1_555
C30 O16 1_555 1_555
H43 C30 1_555 1_555
H44 C30 1_555 1_555
O17 C32 1_555 1_555
C31 H45 1_555 1_555
H46 C31 1_555 1_555
C32 C31 1_555 1_555
H47 C32 1_555 1_555
H48 C32 1_555 1_555
O18 C31 1_555 1_555
C33 O18 1_555 1_555
H49 C33 1_555 1_555
H50 C33 1_555 1_555
C34 O17 1_555 1_555
H51 C34 1_555 1_555
H52 C34 1_555 1_555
C7 N2 1_555 1_555
C9 N4 1_555 1_555
C13 N5 1_555 1_555
C20 N8 1_555 1_555
C22 N10 1_555 1_555
C26 N11 1_555 1_555
N2 Pd1 1_555 1_555
N6 Pd2 1_555 1_555
N7 Pd2 1_555 1_555
N8 Pd2 1_555 1_555
N11 Pd1 1_555 1_555
N12 Pd1 1_555 1_555
C29 C30 1_555 1_555
C33 C34 1_555 1_555

#END
