
#######################################################################
#
#                 Cambridge Crystallographic Data Centre
#                                CCDC 
#
#######################################################################
#
# If this CIF has been generated from an entry in the Cambridge 
# Structural Database, then it will include bibliographic, chemical, 
# crystal, experimental, refinement or atomic coordinate data resulting 
# from the CCDC's data processing and validation procedures.
#
#######################################################################

data_GEQSOM
_chemical_formula_moiety         
'C34 H52 N12 O2 Pd2 4+,4(Cl1 O4 1-),C6 H16 N2,H2 O1'
_chemical_name_systematic        
"bis((\m~2~-1,3-dipyridin-3-ylurea)-(N,N,N',N'-tetramethylethane-1,2-diamine))-di-palladium(ii) tetraperchlorate N,N,N',N'-tetramethylethane-1,2-diamine solvate monohydrate"
_symmetry_cell_setting           triclinic
_symmetry_space_group_name_H-M   'P -1'
_symmetry_Int_Tables_number      2
_space_group_name_Hall           '-P 1'
loop_
_symmetry_equiv_pos_site_id
_symmetry_equiv_pos_as_xyz
1 x,y,z
2 -x,-y,-z
_cell_length_a                   13.275(9)
_cell_length_b                   15.216(16)
_cell_length_c                   15.513(9)
_cell_angle_alpha                110.66(3)
_cell_angle_beta                 104.68(2)
_cell_angle_gamma                101.53(3)
_cell_volume                     2687.52
_exptl_crystal_description       block
_cell_formula_units_Z            2
loop_
_atom_site_label
_atom_site_type_symbol
_atom_site_fract_x
_atom_site_fract_y
_atom_site_fract_z
C1 C 0.5027(12) 0.3858(10) -0.0450(14)
H1 H 0.4268 0.3675 -0.0886
H2 H 0.5519 0.4292 -0.0615
H3 H 0.5087 0.4208 0.0236
C2 C 0.5298(14) 0.2414(13) -0.1636(12)
H4 H 0.5829 0.2049 -0.1644
H5 H 0.5480 0.2904 -0.1894
H6 H 0.4557 0.1950 -0.2048
C3 C 0.4561(11) 0.2312(11) -0.0368(14)
H7 H 0.3873 0.1964 -0.0950
H8 H 0.4384 0.2727 0.0190
C4 C 0.4999(12) 0.1557(11) -0.0117(14)
H9 H 0.4511 0.1226 0.0142
H10 H 0.5016 0.1045 -0.0718
C5 C 0.6625(13) 0.1241(10) 0.0500(13)
H11 H 0.7427 0.1533 0.0781
H12 H 0.6400 0.0807 -0.0202
H13 H 0.6383 0.0853 0.0841
C6 C 0.6089(14) 0.2428(10) 0.1642(12)
H14 H 0.5669 0.2895 0.1716
H15 H 0.6841 0.2768 0.2117
H16 H 0.5740 0.1873 0.1761
C7 C 0.9103(10) 0.2987(9) 0.1051(10)
H17 H 0.8849 0.2484 0.0398
C8 C 1.0205(10) 0.3250(10) 0.1697(12)
H18 H 1.0678 0.2906 0.1472
C9 C 1.0600(10) 0.4002(10) 0.2649(11)
H19 H 1.1331 0.4166 0.3077
C10 C 0.9892(9) 0.4511(9) 0.2963(10)
C11 C 0.8785(9) 0.4217(8) 0.2294(9)
H20 H 0.8300 0.4558 0.2495
C12 C 0.9730(9) 0.5779(9) 0.4386(10)
C13 C 1.0056(7) 0.7280(8) 0.5875(8)
C14 C 1.0809(8) 0.7931(8) 0.6807(10)
H21 H 1.1536 0.7902 0.6998
C15 C 1.0503(9) 0.8623(9) 0.7456(10)
H22 H 1.0998 0.9045 0.8108
C16 C 0.9452(9) 0.8684(8) 0.7131(9)
H23 H 0.9245 0.9179 0.7557
C17 C 0.8988(8) 0.7372(8) 0.5595(10)
H24 H 0.8474 0.6937 0.4955
C18 C 0.6313(14) 0.6319(9) 0.5795(11)
H25 H 0.7015 0.6206 0.6019
H26 H 0.6084 0.6133 0.5086
H27 H 0.5754 0.5918 0.5932
C19 C 0.7035(13) 0.7708(14) 0.7325(12)
H28 H 0.6524 0.7594 0.7662
H29 H 0.7437 0.8418 0.7609
H30 H 0.7557 0.7344 0.7405
C20 C 0.5384(12) 0.7554(13) 0.6302(16)
H31 H 0.5506 0.8175 0.6872
H32 H 0.4886 0.7001 0.6340
C21 C 0.4834(10) 0.7635(12) 0.5276(15)
H33 H 0.4585 0.6975 0.4716
H34 H 0.4184 0.7857 0.5296
C22 C 0.5704(15) 0.9401(11) 0.5755(15)
H35 H 0.4962 0.9453 0.5630
H36 H 0.6145 0.9868 0.5585
H37 H 0.6047 0.9559 0.6453
C23 C 0.5252(10) 0.8151(11) 0.4078(10)
H38 H 0.5173 0.7463 0.3674
H39 H 0.5785 0.8599 0.3960
H40 H 0.4539 0.8261 0.3902
C24 C 0.8302(9) 0.9967(9) 0.5442(9)
H41 H 0.8289 1.0324 0.6077
C25 C 0.8761(10) 1.0492(9) 0.5004(10)
H42 H 0.9028 1.1196 0.5315
C26 C 0.8828(9) 0.9987(9) 0.4120(11)
H43 H 0.9175 1.0336 0.3818
C27 C 0.8384(8) 0.8945(8) 0.3642(10)
C28 C 0.7889(8) 0.8449(8) 0.4122(9)
H44 H 0.7572 0.7748 0.3812
C29 C 0.8303(10) 0.7449(9) 0.2264(11)
C30 C 0.8259(10) 0.6155(9) 0.0765(10)
C31 C 0.8679(15) 0.6008(11) -0.0017(13)
H45 H 0.9028 0.6559 -0.0111
C32 C 0.8572(15) 0.5051(12) -0.0641(14)
H46 H 0.8840 0.4940 -0.1171
C33 C 0.8077(14) 0.4269(11) -0.0483(10)
H47 H 0.8035 0.3618 -0.0890
C34 C 0.7740(9) 0.5347(8) 0.0883(9)
H48 H 0.7452 0.5434 0.1398
N1 N 0.5343(9) 0.2945(7) -0.0576(8)
N2 N 0.6114(8) 0.2049(7) 0.0625(8)
N3 N 0.8426(7) 0.3467(7) 0.1387(7)
N4 N 1.0327(7) 0.5287(8) 0.3919(8)
H49 H 1.1038 0.5468 0.4239
N5 N 1.0404(7) 0.6592(7) 0.5238(7)
H50 H 1.1116 0.6691 0.5401
N6 N 0.8691(7) 0.8031(7) 0.6188(7)
N7 N 0.6445(8) 0.7375(7) 0.6320(7)
N8 N 0.5640(7) 0.8349(8) 0.5128(8)
N9 N 0.7868(7) 0.8974(7) 0.5023(8)
N10 N 0.8383(8) 0.8404(7) 0.2683(8)
H51 H 0.8442 0.8737 0.2326
N11 N 0.8362(9) 0.7131(7) 0.1372(9)
H52 H 0.8476 0.7574 0.1135
N12 N 0.7646(9) 0.4402(7) 0.0236(9)
O1 O 0.8150(14) 0.6902(8) 0.2647(9)
O2 O 0.8712(6) 0.5509(6) 0.4092(7)
Pd1 Pd 0.68935(7) 0.32154(6) 0.04200(7)
Pd2 Pd 0.71819(6) 0.81966(6) 0.56770(7)
Cl1 Cl 0.5662(3) 0.5121(3) 0.2798(3)
O3 O 0.5738(11) 0.4525(8) 0.3346(9)
O4 O 0.6178(10) 0.4788(8) 0.2068(9)
O5 O 0.6250(12) 0.6153(8) 0.3500(10)
O6 O 0.4609(13) 0.5010(17) 0.238(2)
Cl2 Cl 0.8399(5) 0.8801(3) 0.0097(4)
O7 O 0.8914(15) 0.9004(8) 0.1117(10)
O8 O 0.9085(13) 0.8742(13) -0.0430(11)
O9 O 0.791(2) 0.9495(15) 0.0005(12)
O10 O 0.7690(16) 0.7850(13) -0.0373(11)
Cl3 Cl 0.6324(2) 0.0491(2) 0.2869(3)
O11 O 0.6190(8) -0.0076(8) 0.3416(9)
O12 O 0.6953(7) 0.0127(7) 0.2290(8)
O13 O 0.5246(7) 0.0421(7) 0.2260(8)
O14 O 0.6897(9) 0.1499(8) 0.3553(8)
O15 O 0.2520(11) 0.5950(16) 0.5320(18)
H53 H 0.245(19) 0.544(8) 0.542(15)
H54 H 0.258(19) 0.644(10) 0.584(11)
O16 O 0.3149(18) 0.5613(18) 0.351(2)
H55 H 0.289(7) 0.501(6) 0.334(7)
N13 N 0.8064(9) 0.1415(7) 0.8050(8)
N14 N 0.8392(8) 0.2737(7) 0.6985(8)
C35 C 0.7476(19) 0.1697(15) 0.8692(15)
H56 H 0.6842 0.1129 0.8522
H57 H 0.7220 0.2239 0.8624
H58 H 0.7958 0.1919 0.9373
C36 C 0.876(3) 0.236(3) 0.768(3)
H59 H 0.9041 0.2847 0.8373
H60 H 0.9279 0.1984 0.7537
C37 C 0.807(2) 0.0424(10) 0.779(3)
H61 H 0.8165 0.0281 0.8370
H62 H 0.8683 0.0340 0.7558
H63 H 0.7377 -0.0033 0.7269
C38 C 0.820(4) 0.259(2) 0.5993(12)
H64 H 0.7404 0.2343 0.5629
H65 H 0.8530 0.2096 0.5689
H66 H 0.8524 0.3213 0.5975
C39 C 0.765(3) 0.175(3) 0.733(2)
H67 H 0.7376 0.1243 0.6640
H68 H 0.7130 0.2120 0.7460
C40 C 0.933(2) 0.3596(19) 0.755(3)
H69 H 0.9095 0.4181 0.7776
H70 H 0.9764 0.3669 0.7136
H71 H 0.9779 0.3531 0.8115
loop_
_geom_bond_atom_site_label_1
_geom_bond_atom_site_label_2
_geom_bond_site_symmetry_1
_geom_bond_site_symmetry_2
C1 H1 1_555 1_555
H2 C1 1_555 1_555
H3 C1 1_555 1_555
C2 H4 1_555 1_555
H5 C2 1_555 1_555
H6 C2 1_555 1_555
C3 H7 1_555 1_555
H8 C3 1_555 1_555
C4 C3 1_555 1_555
H9 C4 1_555 1_555
H10 C4 1_555 1_555
C5 H11 1_555 1_555
H12 C5 1_555 1_555
H13 C5 1_555 1_555
C6 H14 1_555 1_555
H15 C6 1_555 1_555
H16 C6 1_555 1_555
C7 H17 1_555 1_555
C8 C7 1_555 1_555
H18 C8 1_555 1_555
C9 C8 1_555 1_555
H19 C9 1_555 1_555
C10 C9 1_555 1_555
C11 C10 1_555 1_555
H20 C11 1_555 1_555
C12 N4 1_555 1_555
C13 C14 1_555 1_555
C14 H21 1_555 1_555
C15 C14 1_555 1_555
H22 C15 1_555 1_555
C16 C15 1_555 1_555
H23 C16 1_555 1_555
C17 C13 1_555 1_555
H24 C17 1_555 1_555
C18 H25 1_555 1_555
H26 C18 1_555 1_555
H27 C18 1_555 1_555
C19 H28 1_555 1_555
H29 C19 1_555 1_555
H30 C19 1_555 1_555
C20 H31 1_555 1_555
H32 C20 1_555 1_555
C21 C20 1_555 1_555
H33 C21 1_555 1_555
H34 C21 1_555 1_555
C22 H35 1_555 1_555
H36 C22 1_555 1_555
H37 C22 1_555 1_555
C23 H38 1_555 1_555
H39 C23 1_555 1_555
H40 C23 1_555 1_555
C24 H41 1_555 1_555
C25 C24 1_555 1_555
H42 C25 1_555 1_555
C26 C25 1_555 1_555
H43 C26 1_555 1_555
C27 C26 1_555 1_555
C28 C27 1_555 1_555
H44 C28 1_555 1_555
C29 N10 1_555 1_555
C30 C31 1_555 1_555
C31 H45 1_555 1_555
C32 C31 1_555 1_555
H46 C32 1_555 1_555
C33 C32 1_555 1_555
H47 C33 1_555 1_555
C34 C30 1_555 1_555
H48 C34 1_555 1_555
N1 C1 1_555 1_555
N2 C4 1_555 1_555
N3 C7 1_555 1_555
N4 C10 1_555 1_555
H49 N4 1_555 1_555
N5 C12 1_555 1_555
H50 N5 1_555 1_555
N6 C16 1_555 1_555
N7 C18 1_555 1_555
N8 C21 1_555 1_555
N9 C24 1_555 1_555
N10 C27 1_555 1_555
H51 N10 1_555 1_555
N11 C29 1_555 1_555
H52 N11 1_555 1_555
N12 C33 1_555 1_555
O1 C29 1_555 1_555
O2 C12 1_555 1_555
Pd1 N1 1_555 1_555
Pd2 N6 1_555 1_555
Cl1 O3 1_555 1_555
O4 Cl1 1_555 1_555
O5 Cl1 1_555 1_555
O6 Cl1 1_555 1_555
Cl2 O7 1_555 1_555
O8 Cl2 1_555 1_555
O9 Cl2 1_555 1_555
O10 Cl2 1_555 1_555
Cl3 O11 1_555 1_555
O12 Cl3 1_555 1_555
O13 Cl3 1_555 1_555
O14 Cl3 1_555 1_555
O15 H53 1_555 1_555
H54 O15 1_555 1_555
O16 H55 1_555 1_555
N13 C35 1_555 1_555
N14 C36 1_555 1_555
C35 H56 1_555 1_555
H57 C35 1_555 1_555
H58 C35 1_555 1_555
C36 H59 1_555 1_555
H60 C36 1_555 1_555
C37 N13 1_555 1_555
H61 C37 1_555 1_555
H62 C37 1_555 1_555
H63 C37 1_555 1_555
C38 N14 1_555 1_555
H64 C38 1_555 1_555
H65 C38 1_555 1_555
H66 C38 1_555 1_555
C39 N13 1_555 1_555
H67 C39 1_555 1_555
H68 C39 1_555 1_555
C40 N14 1_555 1_555
H69 C40 1_555 1_555
H70 C40 1_555 1_555
H71 C40 1_555 1_555
C2 N1 1_555 1_555
C3 N1 1_555 1_555
C5 N2 1_555 1_555
C6 N2 1_555 1_555
C11 N3 1_555 1_555
C13 N5 1_555 1_555
C17 N6 1_555 1_555
C19 N7 1_555 1_555
C20 N7 1_555 1_555
C22 N8 1_555 1_555
C23 N8 1_555 1_555
C28 N9 1_555 1_555
C30 N11 1_555 1_555
C34 N12 1_555 1_555
N2 Pd1 1_555 1_555
N3 Pd1 1_555 1_555
N7 Pd2 1_555 1_555
N8 Pd2 1_555 1_555
N9 Pd2 1_555 1_555
N12 Pd1 1_555 1_555
C36 C39 1_555 1_555

#END
