
#######################################################################
#
#                 Cambridge Crystallographic Data Centre
#                                CCDC 
#
#######################################################################
#
# If this CIF has been generated from an entry in the Cambridge 
# Structural Database, then it will include bibliographic, chemical, 
# crystal, experimental, refinement or atomic coordinate data resulting 
# from the CCDC's data processing and validation procedures.
#
#######################################################################

data_GERCUD
_chemical_formula_moiety         
'C144 H108 Fe4 N28 8+,8(C1 F3 O3 S1 1-),27(C2 H3 N1)'
_chemical_name_systematic        
"tetrakis(\m~3~-N'-(Pyridin-2-ylmethylene)-N,N-bis(4-((pyridin-2-ylmethylene)amino)phenyl)benzene-1,4-diamine)-tetr-iron octakis(trifluoromethanesulfonate) acetonitrile solvate"
_symmetry_cell_setting           monoclinic
_symmetry_space_group_name_H-M   'P 21/n'
_symmetry_Int_Tables_number      14
_space_group_name_Hall           '-P 2yn'
loop_
_symmetry_equiv_pos_site_id
_symmetry_equiv_pos_as_xyz
1 x,y,z
2 1/2-x,1/2+y,1/2-z
3 -x,-y,-z
4 1/2+x,1/2-y,1/2+z
_cell_length_a                   19.6303(12)
_cell_length_b                   32.402(2)
_cell_length_c                   30.4210(17)
_cell_angle_alpha                90
_cell_angle_beta                 95.494(2)
_cell_angle_gamma                90
_cell_volume                     19260.7
_exptl_crystal_colour            'dark red'
_exptl_crystal_description       lath
_cell_formula_units_Z            4
loop_
_atom_site_label
_atom_site_type_symbol
_atom_site_fract_x
_atom_site_fract_y
_atom_site_fract_z
C1 C 0.3620(6) 0.0378(3) 0.3025(3)
C2 C 0.4726(5) 0.0255(3) 0.3358(4)
H1 H 0.5059 0.0286 0.3603
C3 C 0.4880(6) 0.0016(4) 0.3005(4)
H2 H 0.5321 -0.0107 0.3013
C4 C 0.4405(6) -0.0052(4) 0.2633(3)
H3 H 0.4507 -0.0213 0.2387
C5 C 0.3781(7) 0.0136(4) 0.2660(4)
H4 H 0.3438 0.0101 0.2420
C6 C 0.3000(5) 0.0567(3) 0.3030(3)
H5 H 0.2644 0.0547 0.2796
C7 C 0.2314(5) 0.1012(3) 0.3434(3)
C8 C 0.1856(6) 0.0882(3) 0.3712(3)
H6 H 0.1955 0.0650 0.3898
C9 C 0.1242(5) 0.1092(3) 0.3722(3)
H7 H 0.0926 0.1015 0.3926
C10 C 0.1094(5) 0.1422(3) 0.3423(3)
C11 C 0.1553(5) 0.1553(3) 0.3165(3)
H8 H 0.1464 0.1792 0.2987
C12 C 0.2184(6) 0.1334(3) 0.3154(3)
H9 H 0.2506 0.1413 0.2955
C13 C 0.0274(5) 0.1842(3) 0.3845(3)
C14 C 0.0759(6) 0.1900(3) 0.4193(5)
H10 H 0.1208 0.1798 0.4171
C15 C 0.0623(7) 0.2096(4) 0.4565(4)
H11 H 0.0955 0.2111 0.4814
C16 C -0.0010(7) 0.2274(3) 0.4574(4)
C17 C -0.0532(5) 0.2217(3) 0.4222(3)
H12 H -0.0977 0.2331 0.4225
C18 C -0.0337(5) 0.1977(3) 0.3868(3)
H13 H -0.0676 0.1911 0.3635
C19 C -0.0034(8) 0.2305(4) 0.5340(5)
H14 H 0.0139 0.2031 0.5363
C20 C -0.0201(9) 0.2535(6) 0.5710(6)
C21 C -0.0473(8) 0.3230(6) 0.5940(5)
H15 H -0.0519 0.3513 0.5864
C22 C -0.0490(8) 0.3071(6) 0.6419(5)
H16 H -0.0568 0.3251 0.6655
C23 C -0.0379(8) 0.2630(6) 0.6488(5)
H17 H -0.0411 0.2516 0.6773
C24 C -0.0236(8) 0.2385(6) 0.6161(5)
H18 H -0.0153 0.2101 0.6221
C25 C 0.0189(4) 0.1836(3) 0.3033(3)
C26 C -0.0027(5) 0.1601(3) 0.2665(3)
H19 H -0.0013 0.1308 0.2682
C27 C -0.0261(5) 0.1791(3) 0.2279(3)
H20 H -0.0452 0.1626 0.2040
C28 C -0.0231(4) 0.2216(3) 0.2220(3)
C29 C -0.0038(5) 0.2454(3) 0.2601(3)
H21 H -0.0079 0.2746 0.2588
C30 C 0.0207(5) 0.2268(3) 0.2986(3)
H22 H 0.0392 0.2433 0.3227
C31 C -0.1067(6) 0.2585(3) 0.1830(3)
H23 H -0.1319 0.2565 0.2081
C32 C -0.1351(6) 0.2823(4) 0.1425(3)
C33 C -0.1186(5) 0.2981(3) 0.0734(3)
H24 H -0.0892 0.2991 0.0503
C34 C -0.1813(5) 0.3168(3) 0.0659(3)
H25 H -0.1958 0.3276 0.0375
C35 C -0.2238(6) 0.3200(3) 0.0998(3)
H26 H -0.2674 0.3330 0.0958
C36 C -0.1978(5) 0.3027(3) 0.1407(3)
H27 H -0.2223 0.3048 0.1661
C37 C 0.5136(5) 0.1097(3) 0.4066(3)
C38 C 0.4953(5) 0.0521(4) 0.4497(3)
H28 H 0.4682 0.0294 0.4574
C39 C 0.5593(6) 0.0569(4) 0.4695(4)
H29 H 0.5755 0.0370 0.4910
C40 C 0.6010(6) 0.0872(4) 0.4610(4)
H30 H 0.6450 0.0900 0.4766
C41 C 0.5772(5) 0.1148(3) 0.4283(3)
H31 H 0.6051 0.1372 0.4210
C42 C 0.4830(5) 0.1358(3) 0.3732(3)
H32 H 0.5075 0.1589 0.3637
C43 C 0.3939(5) 0.1572(3) 0.3230(3)
C44 C 0.3826(4) 0.1461(3) 0.2791(3)
H33 H 0.3878 0.1181 0.2706
C45 C 0.3637(4) 0.1759(3) 0.2470(3)
H34 H 0.3602 0.1689 0.2165
C46 C 0.3500(5) 0.2161(3) 0.2603(3)
C47 C 0.3585(5) 0.2267(3) 0.3038(3)
H35 H 0.3494 0.2541 0.3129
C48 C 0.3819(6) 0.1952(4) 0.3362(4)
H36 H 0.3884 0.2020 0.3666
C49 C 0.2601(4) 0.2366(3) 0.2036(3)
C50 C 0.2133(6) 0.2154(4) 0.2271(3)
H37 H 0.2242 0.2077 0.2571
C51 C 0.1488(5) 0.2057(3) 0.2042(3)
H38 H 0.1161 0.1909 0.2191
C52 C 0.1332(5) 0.2166(3) 0.1629(3)
C53 C 0.1798(6) 0.2386(3) 0.1398(3)
H39 H 0.1676 0.2473 0.1103
C54 C 0.2447(5) 0.2475(3) 0.1608(3)
H40 H 0.2778 0.2611 0.1451
C55 C 0.0561(5) 0.1702(3) 0.1318(3)
H41 H 0.0911 0.1501 0.1366
C56 C -0.0169(6) 0.1597(3) 0.1119(3)
C57 C -0.1208(5) 0.1863(3) 0.0888(3)
H42 H -0.1515 0.2090 0.0865
C58 C -0.1455(5) 0.1489(4) 0.0748(3)
H43 H -0.1905 0.1460 0.0605
C59 C -0.1030(7) 0.1150(4) 0.0821(4)
H44 H -0.1197 0.0879 0.0755
C60 C -0.0352(6) 0.1209(4) 0.0993(4)
H45 H -0.0034 0.0987 0.1021
C61 C 0.3462(5) 0.2873(3) 0.2330(3)
C62 C 0.4138(6) 0.2963(3) 0.2509(3)
H46 H 0.4458 0.2744 0.2561
C63 C 0.4339(5) 0.3358(3) 0.2606(3)
H47 H 0.4796 0.3411 0.2725
C64 C 0.3892(5) 0.3678(3) 0.2536(3)
C65 C 0.3220(5) 0.3587(4) 0.2348(4)
H48 H 0.2900 0.3805 0.2292
C66 C 0.3022(6) 0.3188(3) 0.2244(4)
H49 H 0.2573 0.3135 0.2111
C67 C 0.3952(5) 0.4382(4) 0.2349(3)
H50 H 0.3790 0.4309 0.2054
C68 C 0.4085(5) 0.4801(3) 0.2469(4)
C69 C 0.4473(6) 0.5261(3) 0.3031(4)
H51 H 0.4658 0.5308 0.3327
C70 C 0.4360(6) 0.5581(3) 0.2760(4)
H52 H 0.4449 0.5854 0.2864
C71 C 0.4110(6) 0.5510(4) 0.2321(5)
H53 H 0.4037 0.5740 0.2130
C72 C 0.3961(5) 0.5118(4) 0.2151(3)
H54 H 0.3794 0.5069 0.1852
C73 C 0.3084(5) 0.0433(3) 0.4508(3)
C74 C 0.3471(5) -0.0086(4) 0.4086(3)
H55 H 0.3722 -0.0181 0.3854
C75 C 0.3165(6) -0.0386(3) 0.4327(4)
H56 H 0.3202 -0.0669 0.4251
C76 C 0.2818(6) -0.0277(4) 0.4668(4)
H57 H 0.2603 -0.0476 0.4837
C77 C 0.2788(5) 0.0142(4) 0.4762(3)
H58 H 0.2558 0.0230 0.5007
C78 C 0.3052(5) 0.0880(3) 0.4580(3)
H59 H 0.2824 0.1000 0.4810
C79 C 0.3330(4) 0.1547(3) 0.4364(3)
C80 C 0.2678(5) 0.1712(3) 0.4313(3)
H60 H 0.2288 0.1545 0.4233
C81 C 0.2619(6) 0.2139(3) 0.4387(4)
H61 H 0.2178 0.2259 0.4331
C82 C 0.3117(5) 0.2379(3) 0.4524(3)
C83 C 0.3765(5) 0.2203(3) 0.4574(3)
H62 H 0.4150 0.2369 0.4669
C84 C 0.3853(6) 0.1792(3) 0.4489(3)
H63 H 0.4303 0.1680 0.4521
C85 C 0.3419(5) 0.3087(3) 0.4326(3)
C86 C 0.3321(6) 0.3066(4) 0.3886(4)
H64 H 0.2986 0.2885 0.3747
C87 C 0.3708(8) 0.3310(4) 0.3634(4)
H65 H 0.3656 0.3291 0.3321
C88 C 0.4160(5) 0.3575(3) 0.3838(3)
C89 C 0.4240(7) 0.3620(4) 0.4288(4)
H66 H 0.4572 0.3803 0.4427
C90 C 0.3823(5) 0.3391(3) 0.4528(3)
H67 H 0.3812 0.3442 0.4835
C91 C 0.5185(6) 0.3699(3) 0.3572(3)
H68 H 0.5320 0.3472 0.3758
C92 C 0.5671(3) 0.3889(2) 0.3319(2)
N1 N 0.5361(3) 0.4222(2) 0.3093(2)
C93 C 0.5724(3) 0.4453(2) 0.2809(2)
H69 H 0.5512 0.4681 0.2654
C94 C 0.6397(3) 0.4350(2) 0.2750(2)
H70 H 0.6644 0.4508 0.2556
C95 C 0.6707(3) 0.4017(3) 0.2977(3)
H71 H 0.7167 0.3946 0.2937
C96 C 0.6344(4) 0.3786(2) 0.3261(2)
H72 H 0.6556 0.3558 0.3416
C97 C 0.2404(6) 0.2947(4) 0.4741(4)
C98 C 0.2041(6) 0.2768(4) 0.5043(4)
H73 H 0.2245 0.2535 0.5192
C99 C 0.1438(6) 0.2877(3) 0.5157(4)
H74 H 0.1219 0.2727 0.5372
C100 C 0.1149(6) 0.3207(4) 0.4959(4)
C101 C 0.1468(6) 0.3429(3) 0.4623(4)
H75 H 0.1244 0.3652 0.4466
C102 C 0.2087(6) 0.3308(3) 0.4543(4)
H76 H 0.2331 0.3467 0.4347
C103 C 0.0428(7) 0.3748(5) 0.5103(4)
H77 H 0.0829 0.3914 0.5121
C104 C -0.0230(9) 0.3919(5) 0.5147(5)
C105 C -0.1366(8) 0.3797(5) 0.5162(4)
H78 H -0.1734 0.3606 0.5157
C106 C -0.1479(8) 0.4207(5) 0.5199(4)
H79 H -0.1940 0.4298 0.5194
C107 C -0.0984(8) 0.4491(5) 0.5241(4)
H80 H -0.1087 0.4773 0.5293
C108 C -0.0303(8) 0.4361(5) 0.5206(4)
H81 H 0.0074 0.4546 0.5220
C109 C 0.0585(6) 0.2955(3) 0.0660(4)
C110 C 0.0775(6) 0.3100(4) 0.0273(3)
H82 H 0.0920 0.3378 0.0252
C111 C 0.0759(6) 0.2846(4) -0.0091(4)
H83 H 0.0960 0.2932 -0.0347
C112 C 0.0448(6) 0.2462(5) -0.0080(4)
H84 H 0.0400 0.2290 -0.0334
C113 C 0.0201(5) 0.2335(4) 0.0326(3)
H85 H 0.0006 0.2068 0.0345
C114 C 0.0602(5) 0.3163(3) 0.1083(4)
H86 H 0.0778 0.3435 0.1116
C115 C 0.0484(5) 0.3188(3) 0.1830(3)
C116 C 0.1098(6) 0.3143(4) 0.2076(3)
H87 H 0.1427 0.2962 0.1971
C117 C 0.1264(5) 0.3345(3) 0.2467(4)
H88 H 0.1696 0.3310 0.2632
C118 C 0.0763(5) 0.3608(3) 0.2611(4)
C119 C 0.0153(6) 0.3640(3) 0.2381(3)
H89 H -0.0187 0.3811 0.2488
C120 C 0.0005(5) 0.3428(3) 0.1987(3)
H90 H -0.0435 0.3452 0.1829
C121 C 0.1576(2) 0.3987(2) 0.3144(2)
C122 C 0.1911(3) 0.4189(2) 0.28238(15)
H91 H 0.1698 0.4213 0.2531
C123 C 0.2558(3) 0.4356(2) 0.29319(18)
H92 H 0.2787 0.4494 0.2713
C124 C 0.2869(2) 0.4320(2) 0.3360(2)
C125 C 0.2535(3) 0.4118(2) 0.36802(15)
H93 H 0.2748 0.4094 0.3973
C126 C 0.1888(3) 0.3951(2) 0.35720(17)
H94 H 0.1659 0.3813 0.3791
C127 C 0.3609(6) 0.4692(3) 0.3846(3)
H95 H 0.3227 0.4769 0.3997
C128 C 0.4276(3) 0.4823(2) 0.3996(2)
N2 N 0.4800(4) 0.46533(17) 0.37770(18)
C129 C 0.5477(3) 0.4750(2) 0.3912(2)
H96 H 0.5835 0.4634 0.3762
C130 C 0.5632(3) 0.5016(2) 0.4266(2)
H97 H 0.6095 0.5082 0.4358
C131 C 0.5109(4) 0.51859(19) 0.44845(18)
H98 H 0.5215 0.5368 0.4726
C132 C 0.4431(3) 0.5089(2) 0.4350(2)
H99 H 0.4073 0.5206 0.4499
C133 C 0.0509(5) 0.3661(3) 0.3384(3)
C134 C 0.0123(6) 0.3922(3) 0.3581(4)
H100 H 0.0113 0.4207 0.3507
C135 C -0.0282(6) 0.3762(4) 0.3914(4)
H101 H -0.0602 0.3936 0.4039
C136 C -0.0211(5) 0.3371(4) 0.4048(3)
C137 C 0.0289(7) 0.3119(4) 0.3881(4)
H102 H 0.0381 0.2853 0.4004
C138 C 0.0629(6) 0.3248(4) 0.3553(4)
H103 H 0.0950 0.3072 0.3431
C139 C -0.1256(7) 0.3153(3) 0.4194(4)
H104 H -0.1392 0.3212 0.3893
C140 C -0.1739(7) 0.3000(5) 0.4486(4)
C141 C -0.1811(7) 0.2739(4) 0.5210(4)
H105 H -0.1636 0.2702 0.5509
C142 C -0.2552(7) 0.2615(5) 0.5029(6)
H106 H -0.2820 0.2457 0.5211
C143 C -0.2817(9) 0.2723(6) 0.4633(7)
H107 H -0.3285 0.2667 0.4546
C144 C -0.2425(7) 0.2914(4) 0.4347(5)
H108 H -0.2615 0.2987 0.4059
N3 N 0.4143(4) 0.0438(2) 0.3365(2)
N4 N 0.2947(4) 0.0792(2) 0.3411(3)
N5 N -0.0140(5) 0.2504(3) 0.4959(4)
N6 N -0.0388(7) 0.2931(5) 0.5640(4)
N7 N -0.0512(4) 0.2419(2) 0.1831(2)
N8 N -0.0960(4) 0.2787(3) 0.1099(3)
N9 N 0.0414(4) 0.1641(2) 0.3437(3)
N10 N 0.4698(4) 0.0792(2) 0.4193(2)
N11 N 0.4213(4) 0.1283(2) 0.3554(2)
N12 N 0.0654(4) 0.2068(3) 0.1409(2)
N13 N -0.0555(4) 0.1936(2) 0.1057(2)
N14 N 0.4057(4) 0.4108(3) 0.2646(3)
N15 N 0.3447(4) 0.0324(2) 0.4147(3)
N16 N 0.3274(4) 0.2462(2) 0.2265(2)
N17 N 0.4328(4) 0.4860(3) 0.2895(3)
N18 N 0.3368(4) 0.1100(2) 0.4297(3)
N19 N 0.4634(4) 0.3817(2) 0.3556(2)
N20 N 0.0448(5) 0.3354(3) 0.5036(3)
N21 N -0.0726(7) 0.3665(4) 0.5132(4)
N22 N 0.3035(4) 0.2816(2) 0.4600(2)
N23 N 0.0238(4) 0.2581(3) 0.0677(2)
N24 N 0.0379(4) 0.2975(3) 0.1411(3)
N25 N 0.3537(4) 0.4468(2) 0.3504(3)
N26 N -0.0613(5) 0.3207(3) 0.4367(3)
N27 N -0.1436(5) 0.2906(3) 0.4899(4)
N28 N 0.0892(4) 0.3821(2) 0.3036(3)
Fe1 Fe 0.37930(7) 0.07948(4) 0.38323(4)
Fe2 Fe -0.01120(7) 0.24592(4) 0.12561(4)
Fe3 Fe 0.44389(7) 0.43427(4) 0.32420(4)
Fe4 Fe -0.04575(9) 0.30835(6) 0.50005(5)
loop_
_geom_bond_atom_site_label_1
_geom_bond_atom_site_label_2
_geom_bond_site_symmetry_1
_geom_bond_site_symmetry_2
C1 C5 1_555 1_555
C2 H1 1_555 1_555
C3 C2 1_555 1_555
H2 C3 1_555 1_555
C4 C3 1_555 1_555
H3 C4 1_555 1_555
C5 C4 1_555 1_555
H4 C5 1_555 1_555
C6 C1 1_555 1_555
H5 C6 1_555 1_555
C7 C8 1_555 1_555
C8 H6 1_555 1_555
C9 C8 1_555 1_555
H7 C9 1_555 1_555
C10 C9 1_555 1_555
C11 C10 1_555 1_555
H8 C11 1_555 1_555
C12 C7 1_555 1_555
H9 C12 1_555 1_555
C13 C14 1_555 1_555
C14 H10 1_555 1_555
C15 C14 1_555 1_555
H11 C15 1_555 1_555
C16 C15 1_555 1_555
C17 C16 1_555 1_555
H12 C17 1_555 1_555
C18 C13 1_555 1_555
H13 C18 1_555 1_555
C19 H14 1_555 1_555
C20 C19 1_555 1_555
C21 H15 1_555 1_555
C22 C21 1_555 1_555
H16 C22 1_555 1_555
C23 C22 1_555 1_555
H17 C23 1_555 1_555
C24 C20 1_555 1_555
H18 C24 1_555 1_555
C25 C26 1_555 1_555
C26 H19 1_555 1_555
C27 C26 1_555 1_555
H20 C27 1_555 1_555
C28 C27 1_555 1_555
C29 C28 1_555 1_555
H21 C29 1_555 1_555
C30 C25 1_555 1_555
H22 C30 1_555 1_555
C31 H23 1_555 1_555
C32 C31 1_555 1_555
C33 H24 1_555 1_555
C34 C33 1_555 1_555
H25 C34 1_555 1_555
C35 C34 1_555 1_555
H26 C35 1_555 1_555
C36 C32 1_555 1_555
H27 C36 1_555 1_555
C37 C41 1_555 1_555
C38 H28 1_555 1_555
C39 C38 1_555 1_555
H29 C39 1_555 1_555
C40 C39 1_555 1_555
H30 C40 1_555 1_555
C41 C40 1_555 1_555
H31 C41 1_555 1_555
C42 C37 1_555 1_555
H32 C42 1_555 1_555
C43 C44 1_555 1_555
C44 H33 1_555 1_555
C45 C44 1_555 1_555
H34 C45 1_555 1_555
C46 C45 1_555 1_555
C47 C46 1_555 1_555
H35 C47 1_555 1_555
C48 C43 1_555 1_555
H36 C48 1_555 1_555
C49 C50 1_555 1_555
C50 H37 1_555 1_555
C51 C50 1_555 1_555
H38 C51 1_555 1_555
C52 C51 1_555 1_555
C53 C52 1_555 1_555
H39 C53 1_555 1_555
C54 C49 1_555 1_555
H40 C54 1_555 1_555
C55 H41 1_555 1_555
C56 C55 1_555 1_555
C57 H42 1_555 1_555
C58 C57 1_555 1_555
H43 C58 1_555 1_555
C59 C58 1_555 1_555
H44 C59 1_555 1_555
C60 C56 1_555 1_555
H45 C60 1_555 1_555
C61 C62 1_555 1_555
C62 H46 1_555 1_555
C63 C62 1_555 1_555
H47 C63 1_555 1_555
C64 C63 1_555 1_555
C65 C64 1_555 1_555
H48 C65 1_555 1_555
C66 C61 1_555 1_555
H49 C66 1_555 1_555
C67 H50 1_555 1_555
C68 C67 1_555 1_555
C69 H51 1_555 1_555
C70 C69 1_555 1_555
H52 C70 1_555 1_555
C71 C70 1_555 1_555
H53 C71 1_555 1_555
C72 C68 1_555 1_555
H54 C72 1_555 1_555
C73 C77 1_555 1_555
C74 H55 1_555 1_555
C75 C74 1_555 1_555
H56 C75 1_555 1_555
C76 C75 1_555 1_555
H57 C76 1_555 1_555
C77 C76 1_555 1_555
H58 C77 1_555 1_555
C78 C73 1_555 1_555
H59 C78 1_555 1_555
C79 C80 1_555 1_555
C80 H60 1_555 1_555
C81 C80 1_555 1_555
H61 C81 1_555 1_555
C82 C81 1_555 1_555
C83 C82 1_555 1_555
H62 C83 1_555 1_555
C84 C79 1_555 1_555
H63 C84 1_555 1_555
C85 C86 1_555 1_555
C86 H64 1_555 1_555
C87 C86 1_555 1_555
H65 C87 1_555 1_555
C88 C87 1_555 1_555
C89 C88 1_555 1_555
H66 C89 1_555 1_555
C90 C85 1_555 1_555
H67 C90 1_555 1_555
C91 H68 1_555 1_555
C92 C91 1_555 1_555
N1 C92 1_555 1_555
C93 N1 1_555 1_555
H69 C93 1_555 1_555
C94 C93 1_555 1_555
H70 C94 1_555 1_555
C95 C94 1_555 1_555
H71 C95 1_555 1_555
C96 C92 1_555 1_555
H72 C96 1_555 1_555
C97 C98 1_555 1_555
C98 H73 1_555 1_555
C99 C98 1_555 1_555
H74 C99 1_555 1_555
C100 C99 1_555 1_555
C101 C100 1_555 1_555
H75 C101 1_555 1_555
C102 C97 1_555 1_555
H76 C102 1_555 1_555
C103 H77 1_555 1_555
C104 C103 1_555 1_555
C105 H78 1_555 1_555
C106 C105 1_555 1_555
H79 C106 1_555 1_555
C107 C106 1_555 1_555
H80 C107 1_555 1_555
C108 C104 1_555 1_555
H81 C108 1_555 1_555
C109 C110 1_555 1_555
C110 H82 1_555 1_555
C111 C110 1_555 1_555
H83 C111 1_555 1_555
C112 C111 1_555 1_555
H84 C112 1_555 1_555
C113 C112 1_555 1_555
H85 C113 1_555 1_555
C114 C109 1_555 1_555
H86 C114 1_555 1_555
C115 C116 1_555 1_555
C116 H87 1_555 1_555
C117 C116 1_555 1_555
H88 C117 1_555 1_555
C118 C117 1_555 1_555
C119 C118 1_555 1_555
H89 C119 1_555 1_555
C120 C115 1_555 1_555
H90 C120 1_555 1_555
C121 C122 1_555 1_555
C122 H91 1_555 1_555
C123 C122 1_555 1_555
H92 C123 1_555 1_555
C124 C123 1_555 1_555
C125 C124 1_555 1_555
H93 C125 1_555 1_555
C126 C121 1_555 1_555
H94 C126 1_555 1_555
C127 H95 1_555 1_555
C128 C127 1_555 1_555
N2 C128 1_555 1_555
C129 N2 1_555 1_555
H96 C129 1_555 1_555
C130 C129 1_555 1_555
H97 C130 1_555 1_555
C131 C130 1_555 1_555
H98 C131 1_555 1_555
C132 C128 1_555 1_555
H99 C132 1_555 1_555
C133 C134 1_555 1_555
C134 H100 1_555 1_555
C135 C134 1_555 1_555
H101 C135 1_555 1_555
C136 C135 1_555 1_555
C137 C136 1_555 1_555
H102 C137 1_555 1_555
C138 C133 1_555 1_555
H103 C138 1_555 1_555
C139 H104 1_555 1_555
C140 C139 1_555 1_555
C141 H105 1_555 1_555
C142 C141 1_555 1_555
H106 C142 1_555 1_555
C143 C142 1_555 1_555
H107 C143 1_555 1_555
C144 C140 1_555 1_555
H108 C144 1_555 1_555
N3 C1 1_555 1_555
N4 C6 1_555 1_555
N5 C16 1_555 1_555
N6 C20 1_555 1_555
N7 C28 1_555 1_555
N8 C32 1_555 1_555
N9 C10 1_555 1_555
N10 C37 1_555 1_555
N11 C42 1_555 1_555
N12 C52 1_555 1_555
N13 C56 1_555 1_555
N14 C64 1_555 1_555
N15 C73 1_555 1_555
N16 C46 1_555 1_555
N17 C68 1_555 1_555
N18 C78 1_555 1_555
N19 C88 1_555 1_555
N20 C100 1_555 1_555
N21 C104 1_555 1_555
N22 C82 1_555 1_555
N23 C109 1_555 1_555
N24 C114 1_555 1_555
N25 C124 1_555 1_555
N26 C136 1_555 1_555
N27 C140 1_555 1_555
N28 C118 1_555 1_555
Fe1 N3 1_555 1_555
Fe2 N7 1_555 1_555
Fe3 N1 1_555 1_555
Fe4 N5 1_555 1_555
C2 N3 1_555 1_555
C7 N4 1_555 1_555
C11 C12 1_555 1_555
C13 N9 1_555 1_555
C17 C18 1_555 1_555
C19 N5 1_555 1_555
C21 N6 1_555 1_555
C23 C24 1_555 1_555
C25 N9 1_555 1_555
C29 C30 1_555 1_555
C31 N7 1_555 1_555
C33 N8 1_555 1_555
C35 C36 1_555 1_555
C38 N10 1_555 1_555
C43 N11 1_555 1_555
C47 C48 1_555 1_555
C49 N16 1_555 1_555
C53 C54 1_555 1_555
C55 N12 1_555 1_555
C57 N13 1_555 1_555
C59 C60 1_555 1_555
C61 N16 1_555 1_555
C65 C66 1_555 1_555
C67 N14 1_555 1_555
C69 N17 1_555 1_555
C71 C72 1_555 1_555
C74 N15 1_555 1_555
C79 N18 1_555 1_555
C83 C84 1_555 1_555
C85 N22 1_555 1_555
C89 C90 1_555 1_555
C91 N19 1_555 1_555
C95 C96 1_555 1_555
C97 N22 1_555 1_555
C101 C102 1_555 1_555
C103 N20 1_555 1_555
C105 N21 1_555 1_555
C107 C108 1_555 1_555
C113 N23 1_555 1_555
C115 N24 1_555 1_555
C119 C120 1_555 1_555
C121 N28 1_555 1_555
C125 C126 1_555 1_555
C127 N25 1_555 1_555
N2 Fe3 1_555 1_555
C131 C132 1_555 1_555
C133 N28 1_555 1_555
C137 C138 1_555 1_555
C139 N26 1_555 1_555
C141 N27 1_555 1_555
C143 C144 1_555 1_555
N4 Fe1 1_555 1_555
N6 Fe4 1_555 1_555
N8 Fe2 1_555 1_555
N10 Fe1 1_555 1_555
N11 Fe1 1_555 1_555
N12 Fe2 1_555 1_555
N13 Fe2 1_555 1_555
N14 Fe3 1_555 1_555
N15 Fe1 1_555 1_555
N17 Fe3 1_555 1_555
N18 Fe1 1_555 1_555
N19 Fe3 1_555 1_555
N20 Fe4 1_555 1_555
N21 Fe4 1_555 1_555
N23 Fe2 1_555 1_555
N24 Fe2 1_555 1_555
N25 Fe3 1_555 1_555
N26 Fe4 1_555 1_555
N27 Fe4 1_555 1_555

#END
