
#######################################################################
#
#                 Cambridge Crystallographic Data Centre
#                                CCDC 
#
#######################################################################
#
# If this CIF has been generated from an entry in the Cambridge 
# Structural Database, then it will include bibliographic, chemical, 
# crystal, experimental, refinement or atomic coordinate data resulting 
# from the CCDC's data processing and validation procedures.
#
#######################################################################

data_GEWNOO
_chemical_formula_moiety         '(C44 H48 Cu4 O24)n'
_chemical_name_systematic        
'catena-(tetrakis(\m-5-n-propoxyisophthalato)-tetra-aqua-tetra-copper unknown solvate)'
_symmetry_cell_setting           tetragonal
_symmetry_space_group_name_H-M   'P 4 n c'
_symmetry_Int_Tables_number      104
_space_group_name_Hall           'P 4 -2n'
loop_
_symmetry_equiv_pos_site_id
_symmetry_equiv_pos_as_xyz
1 x,y,z
2 -x,-y,z
3 -y,x,z
4 y,-x,z
5 1/2+x,1/2-y,1/2+z
6 1/2-x,1/2+y,1/2+z
7 1/2-y,1/2-x,1/2+z
8 1/2+y,1/2+x,1/2+z
_cell_length_a                   26.7770(6)
_cell_length_b                   26.7770(6)
_cell_length_c                   18.7751(6)
_cell_angle_alpha                90
_cell_angle_beta                 90
_cell_angle_gamma                90
_cell_volume                     13461.9
_exptl_crystal_colour            blue
_exptl_crystal_description       block
_cell_formula_units_Z            8
loop_
_atom_site_label
_atom_site_type_symbol
_atom_site_fract_x
_atom_site_fract_y
_atom_site_fract_z
Cu1 Cu -0.27760(11) 0.50831(10) 0.53787(15)
Cu2 Cu -0.00862(10) 0.21354(10) 0.51361(17)
Cu3 Cu -0.21747(11) 0.50875(11) 0.42929(16)
Cu4 Cu -0.00855(11) 0.28082(10) 0.41246(18)
O1 O -0.46000(14) 0.68117(16) 0.4815(2)
O2 O -0.45594(16) 0.73855(16) 0.3933(3)
O3 O -0.31305(11) 0.56472(13) 0.48885(18)
O4 O -0.27129(12) 0.54870(13) 0.38749(17)
O5 O -0.35291(18) 0.66660(18) 0.2078(2)
C1 C -0.40308(14) 0.66907(15) 0.3854(2)
C2 C -0.37465(13) 0.63343(14) 0.4205(2)
H1 H -0.381203 0.625947 0.467912
C3 C -0.33605(13) 0.60868(14) 0.38446(19)
C4 C -0.32768(14) 0.61877(15) 0.3137(2)
H2 H -0.302161 0.602412 0.289572
C5 C -0.35736(16) 0.65348(16) 0.2781(2)
C6 C -0.39426(16) 0.67863(16) 0.3145(2)
H3 H -0.413446 0.702367 0.290885
C7 C -0.44265(15) 0.69848(16) 0.4244(2)
C8 C -0.30432(12) 0.57165(13) 0.42307(18)
C9 C -0.31606(19) 0.64222(19) 0.1664(2)
H4 H -0.322417 0.606580 0.164613
H5 H -0.283139 0.647643 0.186494
C10 C -0.3193(2) 0.6646(2) 0.0927(2)
O6 O -0.17360(10) 0.46152(11) 0.48264(16)
O7 O -0.23175(11) 0.45787(12) 0.56988(16)
O8 O -0.06997(9) 0.30590(10) 0.46071(17)
O9 O -0.05830(10) 0.25790(11) 0.55752(19)
O10 O -0.17013(15) 0.33992(17) 0.74450(18)
C11 C -0.16708(10) 0.39901(12) 0.57264(16)
C12 C -0.13371(10) 0.36951(11) 0.53494(16)
H6 H -0.125339 0.377814 0.488350
C13 C -0.11258(10) 0.32721(11) 0.56695(17)
C14 C -0.12387(12) 0.31616(13) 0.63654(18)
H7 H -0.109903 0.288178 0.658086
C15 C -0.15619(13) 0.34679(15) 0.67494(17)
C16 C -0.17785(12) 0.38746(14) 0.64236(17)
H8 H -0.200042 0.407349 0.667800
C17 C -0.19274(10) 0.44282(12) 0.53772(16)
C18 C -0.07810(10) 0.29448(11) 0.52536(18)
C19 C -0.14929(16) 0.29913(18) 0.7822(2)
O11 O 0.03591(11) 0.17709(11) 0.4473(2)
O12 O 0.04619(11) 0.24128(12) 0.3704(2)
O13 O 0.18338(13) 0.06153(13) 0.4605(3)
O14 O 0.23351(14) 0.05409(15) 0.3650(3)
O15 O 0.16520(16) 0.18543(18) 0.1933(2)
C20 C 0.10062(12) 0.17318(13) 0.3602(2)
C21 C 0.12661(12) 0.13505(13) 0.3938(2)
H9 H 0.116298 0.123712 0.438253
C22 C 0.16837(13) 0.11360(14) 0.3608(3)
C23 C 0.18235(14) 0.12942(16) 0.2942(3)
H10 H 0.209988 0.115259 0.272015
C24 C 0.15519(15) 0.16665(16) 0.2597(2)
C25 C 0.11507(13) 0.18849(15) 0.2934(2)
H11 H 0.097539 0.213902 0.270700
C26 C 0.05756(11) 0.19903(12) 0.3967(2)
C27 C 0.19736(13) 0.07383(14) 0.3983(3)
C28 C 0.20566(18) 0.1648(2) 0.1547(3)
O16 O 0.03894(9) 0.31670(11) 0.47204(19)
O17 O 0.04266(10) 0.25537(12) 0.5547(2)
O18 O 0.18826(10) 0.43024(13) 0.4723(3)
O19 O 0.23135(11) 0.44076(15) 0.5740(4)
O20 O 0.14901(15) 0.31663(18) 0.7441(3)
C29 C 0.09706(10) 0.32325(13) 0.5678(2)
C30 C 0.12589(10) 0.35983(13) 0.5355(3)
H12 H 0.118782 0.369246 0.488949
C31 C 0.1646(8) 0.3824(8) 0.5708(15)
C32 C 0.1740(8) 0.3677(9) 0.6456(15)
H13 H 0.199981 0.382468 0.670777
C33 C 0.1454(9) 0.3337(9) 0.6769(12)
C34 C 0.1067(9) 0.3110(8) 0.6391(13)
H14 H 0.086934 0.287233 0.661709
C35 C 0.0583(7) 0.2980(7) 0.5278(11)
C36 C 0.1913(10) 0.4243(9) 0.5339(16)
C37 C 0.1905(13) 0.3297(12) 0.7907(13)
O21 O -0.3176(8) 0.5080(6) 0.6368(12)
O22 O -0.1741(10) 0.5063(9) 0.3313(17)
O23 O -0.0082(5) 0.1579(6) 0.5952(7)
O24 O -0.0039(6) 0.3313(5) 0.3229(7)
Cu1A Cu 0.27760(11) 0.49169(10) 0.53787(15)
Cu1B Cu -0.50831(10) 0.72240(11) 0.53787(15)
Cu2C Cu 0.21354(10) 0.00862(10) 0.51361(17)
Cu3A Cu 0.21747(11) 0.49125(11) 0.42929(16)
Cu3B Cu -0.50875(11) 0.78253(11) 0.42929(16)
Cu4C Cu 0.28082(10) 0.00855(11) 0.41246(18)
O1C O -0.31883(16) 0.46000(14) 0.4815(2)
O2C O -0.26145(16) 0.45594(16) 0.3933(3)
O13B O -0.06153(13) 0.18338(13) 0.4605(3)
O14B O -0.05409(15) 0.23351(14) 0.3650(3)
O18A O -0.18826(10) 0.56976(13) 0.4723(3)
O19A O -0.23135(11) 0.55924(15) 0.5740(4)
loop_
_geom_bond_atom_site_label_1
_geom_bond_atom_site_label_2
_geom_bond_site_symmetry_1
_geom_bond_site_symmetry_2
Cu1 O3 1_555 1_555
Cu2 O9 1_555 1_555
Cu3 O4 1_555 1_555
Cu4 O8 1_555 1_555
O1 C7 1_555 1_555
O2 C7 1_555 1_555
O3 C8 1_555 1_555
O4 C8 1_555 1_555
O5 C5 1_555 1_555
C1 C2 1_555 1_555
C2 H1 1_555 1_555
C3 C2 1_555 1_555
C4 C3 1_555 1_555
H2 C4 1_555 1_555
C5 C4 1_555 1_555
C6 C1 1_555 1_555
H3 C6 1_555 1_555
C7 C1 1_555 1_555
C8 C3 1_555 1_555
C9 O5 1_555 1_555
H4 C9 1_555 1_555
H5 C9 1_555 1_555
C10 C9 1_555 1_555
O6 Cu3 1_555 1_555
O7 Cu1 1_555 1_555
O8 C18 1_555 1_555
O9 C18 1_555 1_555
O10 C15 1_555 1_555
C11 C12 1_555 1_555
C12 H6 1_555 1_555
C13 C12 1_555 1_555
C14 C13 1_555 1_555
H7 C14 1_555 1_555
C15 C14 1_555 1_555
C16 C11 1_555 1_555
H8 C16 1_555 1_555
C17 O6 1_555 1_555
C18 C13 1_555 1_555
C19 O10 1_555 1_555
O11 Cu2 1_555 1_555
O12 Cu4 1_555 1_555
O13 C27 1_555 1_555
O14 C27 1_555 1_555
O15 C24 1_555 1_555
C20 C21 1_555 1_555
C21 H9 1_555 1_555
C22 C21 1_555 1_555
C23 C22 1_555 1_555
H10 C23 1_555 1_555
C24 C23 1_555 1_555
C25 C20 1_555 1_555
H11 C25 1_555 1_555
C26 O11 1_555 1_555
C27 C22 1_555 1_555
C28 O15 1_555 1_555
O16 Cu4 1_555 1_555
O17 Cu2 1_555 1_555
O18 C36 1_555 1_555
O19 C36 1_555 1_555
O20 C33 1_555 1_555
C29 C30 1_555 1_555
C30 H12 1_555 1_555
C31 C30 1_555 1_555
C32 C31 1_555 1_555
H13 C32 1_555 1_555
C33 C32 1_555 1_555
C34 C29 1_555 1_555
H14 C34 1_555 1_555
C35 O16 1_555 1_555
C36 C31 1_555 1_555
C37 O20 1_555 1_555
O21 Cu1 1_555 1_555
O22 Cu3 1_555 1_555
O23 Cu2 1_555 1_555
O24 Cu4 1_555 1_555
Cu1A O19 1_555 1_555
Cu1B O1 1_555 1_555
Cu2C O13 1_555 1_555
Cu3A O18 1_555 1_555
Cu3B O2 1_555 1_555
Cu4C O14 1_555 1_555
O1C Cu1 1_555 1_555
O2C Cu3 1_555 1_555
O13B Cu2 1_555 1_555
O14B Cu4 1_555 1_555
O18A Cu3 1_555 1_555
O19A Cu1 1_555 1_555
C5 C6 1_555 1_555
O7 C17 1_555 1_555
C11 C17 1_555 1_555
C15 C16 1_555 1_555
O12 C26 1_555 1_555
C20 C26 1_555 1_555
C24 C25 1_555 1_555
O17 C35 1_555 1_555
C29 C35 1_555 1_555
C33 C34 1_555 1_555

#END
