
#######################################################################
#
#                 Cambridge Crystallographic Data Centre
#                                CCDC 
#
#######################################################################
#
# If this CIF has been generated from an entry in the Cambridge 
# Structural Database, then it will include bibliographic, chemical, 
# crystal, experimental, refinement or atomic coordinate data resulting 
# from the CCDC's data processing and validation procedures.
#
#######################################################################

data_GIYMOR
_chemical_formula_moiety         'C128 H104 N40 Pd6 12+,12(N1 O3 1-),18(H2 O1)'
_chemical_name_systematic        
"tetrakis(\m~3~-1,3,4-tris(4-Pyridyl)-verdazyl radical-N,N',N'')-hexakis(2,2'-bipyridine)-hexa-palladium(ii) dodecakis(nitrate) octadecahydrate"
_symmetry_cell_setting           trigonal
_symmetry_space_group_name_H-M   'P -3 c 1'
_symmetry_Int_Tables_number      165
_space_group_name_Hall           '-P 3 2"c'
loop_
_symmetry_equiv_pos_site_id
_symmetry_equiv_pos_as_xyz
1 x,y,z
2 -y,x-y,z
3 -x+y,-x,z
4 y,x,1/2-z
5 x-y,-y,1/2-z
6 -x,-x+y,1/2-z
7 -x,-y,-z
8 y,-x+y,-z
9 x-y,x,-z
10 -y,-x,1/2+z
11 -x+y,y,1/2+z
12 x,x-y,1/2+z
_cell_length_a                   27.5542(14)
_cell_length_b                   27.5542(14)
_cell_length_c                   33.881(3)
_cell_angle_alpha                90
_cell_angle_beta                 90
_cell_angle_gamma                120
_cell_volume                     22277.3
_exptl_crystal_colour            'deep green'
_exptl_crystal_description       block
_cell_formula_units_Z            4
_exptl_crystal_recrystallization_method acetone/water
_exptl_crystal_preparation       'magnetic properties'
loop_
_atom_site_label
_atom_site_type_symbol
_atom_site_fract_x
_atom_site_fract_y
_atom_site_fract_z
N14 N 0.4869(9) 0.7471(9) 0.9776(5)
O1 O 0.4370(7) 0.7200(7) 0.9801(5)
O2 O 0.5170(8) 0.7228(8) 0.9768(5)
O3 O 0.5139(7) 0.7943(7) 0.9711(5)
N15 N 0.6820(9) 0.6717(9) 0.1063(7)
O5 O 0.6372(7) 0.6671(7) 0.1158(5)
O6 O 0.6872(8) 0.6642(8) 0.0693(6)
O7 O 0.7190(9) 0.6840(9) 0.1272(6)
N16 N 0.5495(11) 0.0904(10) 0.3653(7)
O9 O 0.5531(13) 0.0542(11) 0.3466(8)
O10 O 0.5895(13) 0.1226(14) 0.3888(10)
O11 O 0.5077(10) 0.0912(9) 0.3621(6)
O16 O 0.3969(6) 0.6086(6) 0.9617(4)
O17 O 0.6667 0.3333 0.2447(12)
O18 O 0.2632(10) 0.1770(10) 0.4864(7)
O19 O 0.6627(18) 0.1715(18) 0.2558(13)
O20 O 0.2170(18) 0.2974(17) 0.0941(13)
O21 O 0.793(2) 0.686(2) 0.0532(15)
O22 O 0.2741(19) 0.1457(19) 0.1166(14)
O23 O 0.2981(15) 0.9865(16) 0.2985(11)
O24 O 0.3105(13) 0.2799(13) 0.1197(10)
O25 O 0.1587(15) 0.0991(15) 0.4983(11)
O26 O 0.3770(13) 0.0000 0.2500
O28 O 0.477(4) 0.076(3) 0.2807(12)
O29 O 0.483(4) 0.039(3) 0.258(3)
O30 O 0.544(2) 0.163(2) 0.2515(17)
O31 O 0.5345(17) 0.2131(17) 0.3013(12)
O32 O 0.4007(13) 0.7780(12) 0.1700(9)
O33 O 0.462(4) 0.791(4) 0.146(4)
O34 O 0.4908(15) 0.7854(13) 0.1831(11)
O35 O 0.6667 0.3333 0.3245(13)
O36 O 0.3682(15) 0.7451(15) 0.8802(11)
O37 O 0.277(2) 0.708(2) 0.8583(15)
O38 O 0.584(2) 0.930(2) 0.2222(16)
O39 O 0.653(3) 0.977(3) 0.1805(18)
O40 O 0.7054(19) 0.4352(19) 0.2192(14)
O41 O 0.596(3) 0.187(3) 0.181(2)
Pd1 Pd 0.49054(7) 0.46131(6) 0.08429(4)
Pd2 Pd 0.78615(7) 0.64487(7) 0.39862(4)
N1 N 0.7752(10) 0.5983(10) 0.2190(6)
C2 C 0.726(4) 0.582(3) 0.2021(14)
H3 H 0.7180 0.6129 0.2030
H4 H 0.6968 0.5498 0.2168
N2 N 0.7268(10) 0.5674(10) 0.1651(7)
N3 N 0.7647(10) 0.5606(10) 0.1455(6)
C3 C 0.8100(11) 0.5751(12) 0.1648(7)
N4 N 0.8158(13) 0.5967(12) 0.2006(8)
C4 C 0.7797(10) 0.6069(10) 0.2577(6)
C5 C 0.7384(11) 0.6088(10) 0.2799(7)
H5 H 0.7044 0.6006 0.2672
C6 C 0.7440(11) 0.6217(9) 0.3191(6)
H6 H 0.7150 0.6248 0.3319
N5 N 0.7869(7) 0.6298(8) 0.3393(4)
C7 C 0.8280(9) 0.6276(9) 0.3223(6)
H7 H 0.8595 0.6331 0.3373
C8 C 0.8257(10) 0.6173(8) 0.2822(7)
H8 H 0.8569 0.6172 0.2703
C9 C 0.6741(8) 0.5433(10) 0.1463(6)
C10 C 0.6277(12) 0.5438(11) 0.1625(6)
H9 H 0.6322 0.5610 0.1875
C11 C 0.5771(10) 0.5216(9) 0.1451(8)
H10 H 0.5487 0.5253 0.1582
N6 N 0.5650(7) 0.4959(8) 0.1119(6)
C12 C 0.6043(10) 0.4910(10) 0.0942(6)
H11 H 0.5958 0.4709 0.0701
C13 C 0.6583(8) 0.5141(9) 0.1094(6)
H12 H 0.6857 0.5105 0.0947
C14 C 0.8485(8) 0.5621(9) 0.1474(6)
C15 C 0.8397(9) 0.5360(9) 0.1112(5)
H13 H 0.8075 0.5290 0.0964
C16 C 0.8746(8) 0.5201(9) 0.0961(5)
H14 H 0.8638 0.4992 0.0722
N7 N 0.4689(6) 0.3900(7) 0.1114(5)
C17 C 0.4443(9) 0.3790(9) 0.1462(6)
H15 H 0.4350 0.4047 0.1577
C18 C 0.8976(9) 0.5682(9) 0.1662(5)
H16 H 0.9053 0.5810 0.1928
N8 N 0.4179(8) 0.4337(9) 0.0562(5)
C19 C 0.3755(12) 0.3855(12) 0.0572(6)
H17 H 0.3788 0.3585 0.0727
C20 C 0.3226(11) 0.3663(12) 0.0378(8)
H18 H 0.2914 0.3293 0.0386
C21 C 0.3255(11) 0.4132(15) 0.0168(7)
H19 H 0.2929 0.4062 0.0026
C22 C 0.3671(13) 0.4631(12) 0.0152(7)
H20 H 0.3649 0.4919 0.0014
C23 C 0.4165(13) 0.4734(13) 0.0351(7)
N9 N 0.5074(9) 0.5308(8) 0.0530(5)
C24 C 0.5579(12) 0.5756(10) 0.0544(5)
H21 H 0.5875 0.5766 0.0693
C25 C 0.5657(12) 0.6269(11) 0.0298(7)
H22 H 0.6000 0.6614 0.0283
C26 C 0.5177(15) 0.6170(13) 0.0106(7)
H23 H 0.5196 0.6461 -0.0055
C27 C 0.4676(13) 0.5683(13) 0.0131(7)
H24 H 0.4360 0.5655 -0.0002
C28 C 0.4619(14) 0.5236(13) 0.0341(6)
N10 N 0.8131(8) 0.7263(8) 0.3889(7)
C29 C 0.8258(14) 0.7515(13) 0.3556(10)
H25 H 0.8220 0.7310 0.3321
C30 C 0.8457(16) 0.8113(15) 0.3534(11)
H26 H 0.8527 0.8293 0.3285
C31 C 0.8541(17) 0.8404(17) 0.3862(13)
H27 H 0.8757 0.8801 0.3840
C32 C 0.8361(14) 0.8202(14) 0.4206(10)
H28 H 0.8356 0.8416 0.4424
C33 C 0.8141(13) 0.7533(12) 0.4222(10)
N11 N 0.7863(9) 0.6657(9) 0.4553(6)
C34 C 0.7720(11) 0.6277(11) 0.4878(8)
H29 H 0.7649 0.5905 0.4845
C35 C 0.7695(13) 0.6483(12) 0.5233(8)
H30 H 0.7583 0.6237 0.5453
C36 C 0.7821(14) 0.7022(13) 0.5299(8)
H31 H 0.7816 0.7148 0.5559
C37 C 0.7953(13) 0.7378(12) 0.4986(9)
H32 H 0.8041 0.7753 0.5031
C38 C 0.7964(13) 0.7195(11) 0.4576(8)
C39 C 0.7115(9) 0.4456(9) 0.4189(5)
C40 C 0.6805(9) 0.4719(9) 0.4129(5)
H33 H 0.6408 0.4500 0.4120
C41 C 0.7056(9) 0.5282(8) 0.4083(5)
H34 H 0.6820 0.5436 0.4035
N12 N 0.7590(7) 0.5627(8) 0.4098(4)
C42 C 0.7921(9) 0.5428(9) 0.4149(6)
H35 H 0.8315 0.5673 0.4155
C43 C 0.7701(10) 0.4849(8) 0.4195(5)
H36 H 0.7954 0.4713 0.4233
C44 C 0.6886(9) 0.3888(18) 0.4250(5)
N13 N 0.633(2) 0.3570(10) 0.4279(6)
Pd1B Pd 0.97077(9) 0.50946(7) 0.08429(4)
Pd1A Pd 0.53869(6) 0.02923(9) 0.08429(4)
Pd2A Pd 0.35513(7) 0.14128(10) 0.39862(4)
Pd2B Pd 0.85872(10) 0.21385(7) 0.39862(4)
N1B N 0.8231(14) 0.2248(10) 0.2190(6)
N1A N 0.4017(10) 0.1769(14) 0.2190(6)
C2B C 0.856(5) 0.274(4) 0.2021(14)
C2A C 0.418(3) 0.144(5) 0.2021(14)
H3A H 0.3871 0.1051 0.2030
H3B H 0.8949 0.2820 0.2030
H4A H 0.4502 0.1470 0.2168
H4B H 0.8530 0.3032 0.2168
N2B N 0.8406(14) 0.2732(10) 0.1651(7)
N2A N 0.4326(10) 0.1594(14) 0.1651(7)
N3B N 0.7959(14) 0.2353(10) 0.1455(6)
N3A N 0.4394(10) 0.2041(14) 0.1455(6)
C3B C 0.7651(16) 0.1900(11) 0.1648(7)
C3A C 0.4249(12) 0.2349(16) 0.1648(7)
N4B N 0.7809(18) 0.1842(13) 0.2006(8)
N4A N 0.4033(12) 0.2191(18) 0.2006(8)
C4A C 0.3931(10) 0.1728(14) 0.2577(6)
C4B C 0.8272(14) 0.2203(10) 0.2577(6)
C5A C 0.3912(10) 0.1296(15) 0.2799(7)
C5B C 0.8704(15) 0.2616(11) 0.2799(7)
H5A H 0.3994 0.1038 0.2672
H5B H 0.8962 0.2956 0.2672
C6A C 0.3783(9) 0.1223(14) 0.3191(6)
C6B C 0.8777(14) 0.2560(11) 0.3191(6)
H6A H 0.3752 0.0902 0.3319
H6B H 0.9098 0.2850 0.3319
N5A N 0.3702(8) 0.1571(11) 0.3393(4)
N5B N 0.8429(11) 0.2131(7) 0.3393(4)
C7B C 0.7996(13) 0.1720(9) 0.3223(6)
C7A C 0.3724(9) 0.2004(13) 0.3223(6)
H7B H 0.7736 0.1405 0.3373
H7A H 0.3669 0.2264 0.3373
C8B C 0.7916(13) 0.1743(10) 0.2822(7)
C8A C 0.3827(8) 0.2084(13) 0.2822(7)
H8B H 0.7603 0.1431 0.2703
H8A H 0.3828 0.2397 0.2703
C9B C 0.8692(13) 0.3259(8) 0.1463(6)
C9A C 0.4567(10) 0.1308(13) 0.1463(6)
C10B C 0.9161(16) 0.3723(12) 0.1625(6)
C10A C 0.4562(11) 0.0839(16) 0.1625(6)
H9A H 0.4390 0.0712 0.1875
H9B H 0.9288 0.3678 0.1875
C11B C 0.9445(13) 0.4229(10) 0.1451(8)
C11A C 0.4784(9) 0.0555(13) 0.1451(8)
H10A H 0.4747 0.0234 0.1582
H10B H 0.9766 0.4513 0.1582
N6B N 0.9309(11) 0.4350(7) 0.1119(6)
N6A N 0.5041(8) 0.0691(11) 0.1119(6)
C12A C 0.5090(10) 0.1133(14) 0.0942(6)
C12B C 0.8867(14) 0.3957(10) 0.0942(6)
H11A H 0.5291 0.1249 0.0701
H11B H 0.8751 0.4042 0.0701
C13A C 0.4859(9) 0.1442(12) 0.1094(6)
C13B C 0.8558(12) 0.3417(8) 0.1094(6)
H12A H 0.4895 0.1752 0.0947
H12B H 0.8248 0.3143 0.0947
C14B C 0.7136(12) 0.1515(8) 0.1474(6)
C14A C 0.4379(9) 0.2864(12) 0.1474(6)
C15B C 0.6963(13) 0.1603(9) 0.1112(5)
C15A C 0.4640(9) 0.3037(13) 0.1112(5)
H13B H 0.7215 0.1925 0.0964
H13A H 0.4710 0.2785 0.0964
C16B C 0.6455(12) 0.1254(8) 0.0961(5)
C16A C 0.4799(9) 0.3545(12) 0.0961(5)
H14B H 0.6354 0.1362 0.0722
H14A H 0.5008 0.3646 0.0722
N7B N 0.9211(9) 0.5311(6) 0.1114(5)
N7A N 0.6100(7) 0.0789(9) 0.1114(5)
C17A C 0.6210(9) 0.0653(13) 0.1462(6)
C17B C 0.9347(13) 0.5557(9) 0.1462(6)
H15A H 0.5953 0.0303 0.1577
H15B H 0.9697 0.5650 0.1577
C18A C 0.4318(9) 0.3294(13) 0.1662(5)
C18B C 0.6706(13) 0.1024(9) 0.1662(5)
H16A H 0.4190 0.3243 0.1928
H16B H 0.6757 0.0947 0.1928
N8A N 0.5663(9) -0.0158(12) 0.0562(5)
N8B N 1.0158(12) 0.5821(8) 0.0562(5)
C19A C 0.6145(12) -0.0100(17) 0.0572(6)
C19B C 1.0100(17) 0.6245(12) 0.0572(6)
H17A H 0.6415 0.0203 0.0727
H17B H 0.9797 0.6212 0.0727
C20A C 0.6337(12) -0.0437(16) 0.0378(8)
C20B C 1.0437(16) 0.6774(11) 0.0378(8)
H18A H 0.6707 -0.0379 0.0386
H18B H 1.0379 0.7086 0.0386
C21A C 0.5868(15) -0.0877(19) 0.0168(7)
C21B C 1.0877(19) 0.6745(11) 0.0168(7)
H19A H 0.5938 -0.1133 0.0026
H19B H 1.1133 0.7071 0.0026
C22A C 0.5369(12) -0.0960(18) 0.0152(7)
C22B C 1.0960(18) 0.6329(13) 0.0152(7)
H20A H 0.5081 -0.1270 0.0014
H20B H 1.1270 0.6351 0.0014
C23A C 0.5266(13) -0.0569(18) 0.0351(7)
C23B C 1.0569(18) 0.5835(13) 0.0351(7)
N9A N 0.4692(8) -0.0234(12) 0.0530(5)
N9B N 1.0234(12) 0.4926(9) 0.0530(5)
C24A C 0.4244(10) -0.0177(16) 0.0544(5)
C24B C 1.0177(16) 0.4421(12) 0.0544(5)
H21A H 0.4234 0.0109 0.0693
H21B H 0.9891 0.4125 0.0693
C25A C 0.3731(11) -0.0612(16) 0.0298(7)
C25B C 1.0612(16) 0.4343(12) 0.0298(7)
H22A H 0.3386 -0.0614 0.0283
H22B H 1.0614 0.4000 0.0283
C26A C 0.3830(13) -0.0993(20) 0.0106(7)
C26B C 1.0993(20) 0.4823(15) 0.0106(7)
H23A H 0.3539 -0.1265 -0.0055
H23B H 1.1265 0.4804 -0.0055
C27A C 0.4317(13) -0.1007(18) 0.0131(7)
C27B C 1.1007(18) 0.5324(13) 0.0131(7)
H24A H 0.4345 -0.1295 -0.0002
H24B H 1.1295 0.5640 -0.0002
C28A C 0.4764(13) -0.0617(19) 0.0341(6)
C28B C 1.0617(19) 0.5381(14) 0.0341(6)
N10A N 0.2737(8) 0.0868(11) 0.3889(7)
N10B N 0.9132(11) 0.1869(8) 0.3889(7)
C29A C 0.2485(13) 0.0743(19) 0.3556(10)
C29B C 0.9257(19) 0.1742(14) 0.3556(10)
H25A H 0.2690 0.0910 0.3321
H25B H 0.9090 0.1780 0.3321
C30A C 0.1887(15) 0.0344(22) 0.3534(11)
C30B C 0.9656(22) 0.1543(16) 0.3534(11)
H26A H 0.1707 0.0234 0.3285
H26B H 0.9766 0.1473 0.3285
C31A C 0.1596(17) 0.0137(24) 0.3862(13)
C31B C 0.9863(24) 0.1459(17) 0.3862(13)
H27A H 0.1199 -0.0044 0.3840
H27B H 1.0044 0.1243 0.3840
C32A C 0.1798(14) 0.0159(20) 0.4206(10)
C32B C 0.9841(20) 0.1639(14) 0.4206(10)
H28A H 0.1584 -0.0060 0.4424
H28B H 1.0060 0.1644 0.4424
C33A C 0.2467(12) 0.0608(18) 0.4222(10)
C33B C 0.9392(18) 0.1859(13) 0.4222(10)
N11A N 0.3343(9) 0.1206(13) 0.4553(6)
N11B N 0.8794(13) 0.2137(9) 0.4553(6)
C34B C 0.8557(16) 0.2280(11) 0.4878(8)
C34A C 0.3723(11) 0.1443(16) 0.4878(8)
H29B H 0.8256 0.2351 0.4845
H29A H 0.4095 0.1744 0.4845
C35B C 0.8788(18) 0.2305(13) 0.5233(8)
C35A C 0.3517(12) 0.1212(18) 0.5233(8)
H30B H 0.8654 0.2417 0.5453
H30A H 0.3763 0.1346 0.5453
C36B C 0.9201(19) 0.2179(14) 0.5299(8)
C36A C 0.2978(13) 0.0799(19) 0.5299(8)
H31B H 0.9332 0.2184 0.5559
H31A H 0.2852 0.0668 0.5559
C37B C 0.9425(18) 0.2047(13) 0.4986(9)
C37A C 0.2622(12) 0.0575(18) 0.4986(9)
H32B H 0.9712 0.1959 0.5031
H32A H 0.2247 0.0288 0.5031
C38A C 0.2805(11) 0.0769(17) 0.4576(8)
C38B C 0.9231(17) 0.2036(13) 0.4576(8)
C39A C 0.5544(9) 0.2659(13) 0.4189(5)
C39B C 0.7341(13) 0.2885(9) 0.4189(5)
C40A C 0.5281(9) 0.2086(13) 0.4129(5)
C40B C 0.7914(13) 0.3195(9) 0.4129(5)
H33B H 0.8092 0.3592 0.4120
H33A H 0.5500 0.1908 0.4120
C41A C 0.4718(8) 0.1774(12) 0.4083(5)
C41B C 0.8226(12) 0.2944(9) 0.4083(5)
H34B H 0.8616 0.3180 0.4035
H34A H 0.4564 0.1384 0.4035
N12A N 0.4373(8) 0.1963(11) 0.4098(4)
N12B N 0.8037(11) 0.2410(7) 0.4098(4)
C42A C 0.4572(9) 0.2493(13) 0.4149(6)
C42B C 0.7507(13) 0.2079(9) 0.4149(6)
H35A H 0.4327 0.2642 0.4155
H35B H 0.7358 0.1685 0.4155
C43A C 0.5151(8) 0.2852(13) 0.4195(5)
C43B C 0.7148(13) 0.2299(10) 0.4195(5)
H36A H 0.5287 0.3241 0.4233
H36B H 0.6759 0.2046 0.4233
C44A C 0.6112(18) 0.2998(20) 0.4250(5)
C44B C 0.7002(20) 0.3114(9) 0.4250(5)
N13A N 0.6430(10) 0.2760(22) 0.4279(6)
N13B N 0.7240(22) 0.367(2) 0.4279(6)
C1? C 0.391(4) 0.138(3) 0.191(3)
H1? H 0.3869 0.1038 0.2028
H2? H 0.3551 0.1287 0.1774
O4? O 0.478(2) 0.700(2) 0.9747(13)
O8? O 0.649(5) 0.630(5) 0.133(3)
N17? N 0.5013(18) 0.901(2) 0.1311(14)
O12? O 0.513(2) 0.942(2) 0.1515(17)
O13? O 0.453(2) 0.874(2) 0.1148(17)
O14? O 0.536(2) 0.895(3) 0.117(2)
O15? O 0.5702(12) 0.9008(11) 0.1462(9)
O27? O 0.440(7) 0.049(5) 0.276(2)
loop_
_geom_bond_atom_site_label_1
_geom_bond_atom_site_label_2
_geom_bond_site_symmetry_1
_geom_bond_site_symmetry_2
Pd1 N6 1_555 1_555
Pd2 N5 1_555 1_555
N1 C2 1_555 1_555
C2 H3 1_555 1_555
H4 C2 1_555 1_555
N2 C2 1_555 1_555
N3 N2 1_555 1_555
C3 N3 1_555 1_555
N4 N1 1_555 1_555
C4 N1 1_555 1_555
C5 C4 1_555 1_555
H5 C5 1_555 1_555
C6 C5 1_555 1_555
H6 C6 1_555 1_555
N5 C6 1_555 1_555
C7 N5 1_555 1_555
H7 C7 1_555 1_555
C8 C4 1_555 1_555
H8 C8 1_555 1_555
C9 N2 1_555 1_555
C10 C9 1_555 1_555
H9 C10 1_555 1_555
C11 C10 1_555 1_555
H10 C11 1_555 1_555
N6 C11 1_555 1_555
C12 N6 1_555 1_555
H11 C12 1_555 1_555
C13 C9 1_555 1_555
H12 C13 1_555 1_555
C14 C3 1_555 1_555
C15 C14 1_555 1_555
H13 C15 1_555 1_555
C16 C15 1_555 1_555
H14 C16 1_555 1_555
N7 Pd1 1_555 1_555
C17 N7 1_555 1_555
H15 C17 1_555 1_555
C18 C14 1_555 1_555
H16 C18 1_555 1_555
N8 Pd1 1_555 1_555
C19 N8 1_555 1_555
H17 C19 1_555 1_555
C20 C19 1_555 1_555
H18 C20 1_555 1_555
C21 C20 1_555 1_555
H19 C21 1_555 1_555
C22 C21 1_555 1_555
H20 C22 1_555 1_555
C23 N8 1_555 1_555
N9 Pd1 1_555 1_555
C24 N9 1_555 1_555
H21 C24 1_555 1_555
C25 C24 1_555 1_555
H22 C25 1_555 1_555
C26 C25 1_555 1_555
H23 C26 1_555 1_555
C27 C26 1_555 1_555
H24 C27 1_555 1_555
C28 C23 1_555 1_555
N10 Pd2 1_555 1_555
C29 N10 1_555 1_555
H25 C29 1_555 1_555
C30 C29 1_555 1_555
H26 C30 1_555 1_555
C31 C30 1_555 1_555
H27 C31 1_555 1_555
C32 C31 1_555 1_555
H28 C32 1_555 1_555
C33 N10 1_555 1_555
N11 Pd2 1_555 1_555
C34 N11 1_555 1_555
H29 C34 1_555 1_555
C35 C34 1_555 1_555
H30 C35 1_555 1_555
C36 C35 1_555 1_555
H31 C36 1_555 1_555
C37 C36 1_555 1_555
H32 C37 1_555 1_555
C38 C33 1_555 1_555
C39 C40 1_555 1_555
C40 H33 1_555 1_555
C41 C40 1_555 1_555
H34 C41 1_555 1_555
N12 Pd2 1_555 1_555
C42 N12 1_555 1_555
H35 C42 1_555 1_555
C43 C39 1_555 1_555
H36 C43 1_555 1_555
C44 C39 1_555 1_555
N13 C44 1_555 1_555
N14 O1 1_555 1_555
O2 N14 1_555 1_555
O3 N14 1_555 1_555
N15 O5 1_555 1_555
O6 N15 1_555 1_555
O7 N15 1_555 1_555
N16 O9 1_555 1_555
O10 N16 1_555 1_555
O11 N16 1_555 1_555
Pd1B N6B 1_555 1_555
Pd1A N6A 1_555 1_555
Pd2A N5A 1_555 1_555
Pd2B N5B 1_555 1_555
N1B C2B 1_555 1_555
N1A C2A 1_555 1_555
C2B H3B 1_555 1_555
C2A H3A 1_555 1_555
H4A C2A 1_555 1_555
H4B C2B 1_555 1_555
N2B C2B 1_555 1_555
N2A C2A 1_555 1_555
N3B N2B 1_555 1_555
N3A N2A 1_555 1_555
C3B N3B 1_555 1_555
C3A N3A 1_555 1_555
N4B N1B 1_555 1_555
N4A N1A 1_555 1_555
C4A N1A 1_555 1_555
C4B N1B 1_555 1_555
C5A C4A 1_555 1_555
C5B C4B 1_555 1_555
H5A C5A 1_555 1_555
H5B C5B 1_555 1_555
C6A C5A 1_555 1_555
C6B C5B 1_555 1_555
H6A C6A 1_555 1_555
H6B C6B 1_555 1_555
N5A C6A 1_555 1_555
N5B C6B 1_555 1_555
C7B N5B 1_555 1_555
C7A N5A 1_555 1_555
H7B C7B 1_555 1_555
H7A C7A 1_555 1_555
C8B C4B 1_555 1_555
C8A C4A 1_555 1_555
H8B C8B 1_555 1_555
H8A C8A 1_555 1_555
C9B N2B 1_555 1_555
C9A N2A 1_555 1_555
C10B C9B 1_555 1_555
C10A C9A 1_555 1_555
H9A C10A 1_555 1_555
H9B C10B 1_555 1_555
C11B C10B 1_555 1_555
C11A C10A 1_555 1_555
H10A C11A 1_555 1_555
H10B C11B 1_555 1_555
N6B C11B 1_555 1_555
N6A C11A 1_555 1_555
C12A N6A 1_555 1_555
C12B N6B 1_555 1_555
H11A C12A 1_555 1_555
H11B C12B 1_555 1_555
C13A C9A 1_555 1_555
C13B C9B 1_555 1_555
H12A C13A 1_555 1_555
H12B C13B 1_555 1_555
C14B C3B 1_555 1_555
C14A C3A 1_555 1_555
C15B C14B 1_555 1_555
C15A C14A 1_555 1_555
H13B C15B 1_555 1_555
H13A C15A 1_555 1_555
C16B C15B 1_555 1_555
C16A N7 1_555 1_555
H14B C16B 1_555 1_555
H14A C16A 1_555 1_555
N7B C16 1_555 1_555
N7A Pd1A 1_555 1_555
C17A N7A 1_555 1_555
C17B C18 1_555 1_555
H15A C17A 1_555 1_555
H15B C17B 1_555 1_555
C18A C17 1_555 1_555
C18B C14B 1_555 1_555
H16A C18A 1_555 1_555
H16B C18B 1_555 1_555
N8A Pd1A 1_555 1_555
N8B Pd1B 1_555 1_555
C19A N8A 1_555 1_555
C19B N8B 1_555 1_555
H17A C19A 1_555 1_555
H17B C19B 1_555 1_555
C20A C19A 1_555 1_555
C20B C19B 1_555 1_555
H18A C20A 1_555 1_555
H18B C20B 1_555 1_555
C21A C20A 1_555 1_555
C21B C20B 1_555 1_555
H19A C21A 1_555 1_555
H19B C21B 1_555 1_555
C22A C21A 1_555 1_555
C22B C21B 1_555 1_555
H20A C22A 1_555 1_555
H20B C22B 1_555 1_555
C23A N8A 1_555 1_555
C23B N8B 1_555 1_555
N9A Pd1A 1_555 1_555
N9B Pd1B 1_555 1_555
C24A N9A 1_555 1_555
C24B N9B 1_555 1_555
H21A C24A 1_555 1_555
H21B C24B 1_555 1_555
C25A C24A 1_555 1_555
C25B C24B 1_555 1_555
H22A C25A 1_555 1_555
H22B C25B 1_555 1_555
C26A C25A 1_555 1_555
C26B C25B 1_555 1_555
H23A C26A 1_555 1_555
H23B C26B 1_555 1_555
C27A C26A 1_555 1_555
C27B C26B 1_555 1_555
H24A C27A 1_555 1_555
H24B C27B 1_555 1_555
C28A C23A 1_555 1_555
C28B C23B 1_555 1_555
N10A Pd2A 1_555 1_555
N10B Pd2B 1_555 1_555
C29A N10A 1_555 1_555
C29B N10B 1_555 1_555
H25A C29A 1_555 1_555
H25B C29B 1_555 1_555
C30A C29A 1_555 1_555
C30B C29B 1_555 1_555
H26A C30A 1_555 1_555
H26B C30B 1_555 1_555
C31A C30A 1_555 1_555
C31B C30B 1_555 1_555
H27A C31A 1_555 1_555
H27B C31B 1_555 1_555
C32A C31A 1_555 1_555
C32B C31B 1_555 1_555
H28A C32A 1_555 1_555
H28B C32B 1_555 1_555
C33A N10A 1_555 1_555
C33B N10B 1_555 1_555
N11A Pd2A 1_555 1_555
N11B Pd2B 1_555 1_555
C34B N11B 1_555 1_555
C34A N11A 1_555 1_555
H29B C34B 1_555 1_555
H29A C34A 1_555 1_555
C35B C34B 1_555 1_555
C35A C34A 1_555 1_555
H30B C35B 1_555 1_555
H30A C35A 1_555 1_555
C36B C35B 1_555 1_555
C36A C35A 1_555 1_555
H31B C36B 1_555 1_555
H31A C36A 1_555 1_555
C37B C36B 1_555 1_555
C37A C36A 1_555 1_555
H32B C37B 1_555 1_555
H32A C37A 1_555 1_555
C38A C33A 1_555 1_555
C38B C33B 1_555 1_555
C39A C40A 1_555 1_555
C39B C40B 1_555 1_555
C40A H33A 1_555 1_555
C40B H33B 1_555 1_555
C41A C40A 1_555 1_555
C41B C40B 1_555 1_555
H34B C41B 1_555 1_555
H34A C41A 1_555 1_555
N12A Pd2A 1_555 1_555
N12B Pd2B 1_555 1_555
C42A N12A 1_555 1_555
C42B N12B 1_555 1_555
H35A C42A 1_555 1_555
H35B C42B 1_555 1_555
C43A C39A 1_555 1_555
C43B C39B 1_555 1_555
H36A C43A 1_555 1_555
H36B C43B 1_555 1_555
C44A N13 1_555 1_555
C44B C39B 1_555 1_555
N13A C44A 1_555 1_555
N13B C44 1_555 1_555
C3 N4 1_555 1_555
C7 C8 1_555 1_555
C12 C13 1_555 1_555
C22 C23 1_555 1_555
N9 C28 1_555 1_555
C27 C28 1_555 1_555
C32 C33 1_555 1_555
N11 C38 1_555 1_555
C37 C38 1_555 1_555
C41 N12 1_555 1_555
C42 C43 1_555 1_555
Pd1B N7B 1_555 1_555
C3B N4B 1_555 1_555
C3A N4A 1_555 1_555
C7B C8B 1_555 1_555
C7A C8A 1_555 1_555
C12A C13A 1_555 1_555
C12B C13B 1_555 1_555
C14A C18A 1_555 1_555
C15A C16A 1_555 1_555
C16B N7A 1_555 1_555
N7B C17B 1_555 1_555
C17A C18B 1_555 1_555
C22A C23A 1_555 1_555
C22B C23B 1_555 1_555
N9A C28A 1_555 1_555
N9B C28B 1_555 1_555
C27A C28A 1_555 1_555
C27B C28B 1_555 1_555
C32A C33A 1_555 1_555
C32B C33B 1_555 1_555
N11A C38A 1_555 1_555
N11B C38B 1_555 1_555
C37B C38B 1_555 1_555
C37A C38A 1_555 1_555
C39A C44A 1_555 1_555
C41A N12A 1_555 1_555
C41B N12B 1_555 1_555
C42A C43A 1_555 1_555
C42B C43B 1_555 1_555
C44B N13A 1_555 1_555
C44B N13B 1_555 1_555

#END
