
#######################################################################
#
#                 Cambridge Crystallographic Data Centre
#                                CCDC 
#
#######################################################################
#
# If this CIF has been generated from an entry in the Cambridge 
# Structural Database, then it will include bibliographic, chemical, 
# crystal, experimental, refinement or atomic coordinate data resulting 
# from the CCDC's data processing and validation procedures.
#
#######################################################################

data_HICBUT
_chemical_formula_moiety         'C88 H72 Fe4 N32 8+,8(B1 F4 1-),6(C2 H3 N1)'
_chemical_name_systematic        
'tetrakis(\m-2-phenyl-4,6-bis(2-((pyridin-2-yl)methylidene)hydrazinyl)pyrimidine)-tetra-iron(ii) octakis(tetrafluoroborate) acetonitrile solvate'
_symmetry_cell_setting           monoclinic
_symmetry_space_group_name_H-M   'C 2/c'
_symmetry_Int_Tables_number      15
_space_group_name_Hall           '-C 2yn'
loop_
_symmetry_equiv_pos_site_id
_symmetry_equiv_pos_as_xyz
1 x,y,z
2 -x,y,1/2-z
3 1/2+x,1/2+y,z
4 1/2-x,1/2+y,1/2-z
5 -x,-y,-z
6 x,-y,1/2+z
7 1/2-x,1/2-y,-z
8 1/2+x,1/2-y,1/2+z
_cell_length_a                   20.0311(15)
_cell_length_b                   35.230(3)
_cell_length_c                   18.0924(14)
_cell_angle_alpha                90
_cell_angle_beta                 111.188(4)
_cell_angle_gamma                90
_cell_volume                     11904.6
_exptl_crystal_colour            red
_exptl_crystal_description       needle
_cell_formula_units_Z            4
loop_
_atom_site_label
_atom_site_type_symbol
_atom_site_fract_x
_atom_site_fract_y
_atom_site_fract_z
Fe1 Fe 0.20148(8) 0.13784(4) 0.18756(8)
Fe2 Fe -0.13184(7) 0.12406(3) 0.00019(7)
N1 N 0.1133(4) 0.1241(2) 0.6035(4)
N2 N 0.1021(4) 0.1135(2) 0.1336(4)
N3 N -0.1381(4) 0.0683(2) 0.0024(4)
N4 N 0.1801(4) 0.1539(2) 0.2860(4)
N5 N -0.0766(4) 0.04793(19) 0.0352(4)
H1 H -0.0762 0.0235 0.0335
N6 N 0.3077(5) 0.1411(3) 0.2441(5)
N7 N 0.2128(4) 0.1413(3) 0.0832(5)
N8 N -0.0240(4) 0.10722(19) 0.0641(4)
N9 N 0.1527(4) 0.14902(19) 0.4048(4)
N10 N 0.1916(5) 0.1907(2) 0.1709(6)
N11 N -0.2372(5) 0.1147(3) -0.0603(4)
N12 N 0.2262(4) 0.0859(2) 0.2006(4)
C1 C -0.3791(8) 0.0943(7) -0.1420(10)
H2 H -0.4266 0.0882 -0.1709
C2 C 0.2214(6) 0.1220(4) -0.0377(6)
H3 H 0.2243 0.1019 -0.0698
C3 C 0.0481(4) 0.0516(2) 0.1090(4)
H4 H 0.0521 0.0254 0.1156
N13 N 0.1741(4) 0.0600(2) 0.1710(4)
H5 H 0.1823 0.0360 0.1729
C4 C 0.1070(5) 0.0750(2) 0.1377(5)
C5 C 0.2421(6) 0.0756(3) 0.3798(5)
H6 H 0.2829 0.0906 0.3995
N14 N 0.1352(5) 0.1786(2) 0.5251(5)
N15 N 0.1845(6) 0.2120(2) 0.2313(6)
H7 H 0.1847 0.2364 0.2306
C6 C 0.2922(6) 0.0761(3) 0.2313(6)
H8 H 0.3069 0.0509 0.2363
C7 C 0.1756(5) 0.0925(2) 0.3456(5)
C8 C 0.1135(7) 0.1590(4) 0.6352(6)
N16 N 0.1504(6) 0.2036(2) 0.4756(5)
H9 H 0.1562 0.2275 0.4857
C9 C 0.1219(8) 0.0299(3) 0.3203(6)
H10 H 0.0819 0.0143 0.3003
C10 C 0.1664(6) 0.2107(3) 0.3525(6)
H11 H 0.1664 0.2371 0.3556
C11 C -0.0158(5) 0.0683(2) 0.0708(5)
C12 C 0.1556(5) 0.1880(3) 0.4097(6)
C13 C -0.2581(6) 0.0777(3) -0.0683(5)
C14 C 0.4159(7) 0.1034(5) 0.2923(7)
H12 H 0.4366 0.0793 0.2991
C15 C -0.1996(5) 0.0514(3) -0.0329(5)
H13 H -0.2052 0.0252 -0.0350
C16 C 0.2481(7) 0.0371(3) 0.3847(6)
H14 H 0.2932 0.0262 0.4083
C17 C 0.4259(8) 0.1686(6) 0.3016(9)
H15 H 0.4542 0.1902 0.3139
C18 C 0.2193(5) 0.1140(3) 0.0362(6)
H16 H 0.2226 0.0889 0.0533
C19 C 0.1900(8) 0.0142(3) 0.3561(7)
H17 H 0.1956 -0.0120 0.3604
C20 C 0.2092(8) 0.1878(4) -0.0177(7)
H18 H 0.2040 0.2128 -0.0356
C21 C 0.2193(7) 0.1576(4) -0.0651(7)
H19 H 0.2243 0.1624 -0.1134
C22 C 0.3414(6) 0.1072(4) 0.2572(7)
C23 C 0.1976(7) 0.2066(3) 0.1088(7)
H20 H 0.1959 0.2326 0.0998
C24 C 0.1034(9) 0.1634(5) 0.7064(9)
H21 H 0.1064 0.1869 0.7305
C25 C 0.2074(7) 0.1786(4) 0.0558(7)
C26 C 0.1772(6) 0.1923(3) 0.2915(6)
C27 C 0.0883(7) 0.1296(6) 0.7406(8)
H22 H 0.0796 0.1314 0.7876
C28 C 0.1148(5) 0.0689(3) 0.3148(5)
H23 H 0.0697 0.0797 0.2908
C29 C -0.2877(9) 0.1414(4) -0.0900(7)
H24 H -0.2753 0.1669 -0.0824
C30 C -0.3288(7) 0.0657(5) -0.1087(7)
H25 H -0.3415 0.0402 -0.1130
C31 C 0.0348(5) 0.1277(2) 0.0950(5)
C32 C 0.1280(7) 0.1891(3) 0.5908(6)
H26 H 0.1320 0.2142 0.6075
C33 C 0.0304(6) 0.1684(3) 0.0852(9)
C34 C 0.1684(4) 0.1339(2) 0.3433(5)
C35 C 0.0977(5) 0.0937(3) 0.6401(6)
H27 H 0.0950 0.0701 0.6160
C36 C 0.3477(8) 0.1732(4) 0.2668(8)
H28 H 0.3265 0.1970 0.2606
C37 C -0.3577(11) 0.1313(7) -0.1317(9)
H29 H -0.3914 0.1502 -0.1535
C38 C 0.4582(9) 0.1345(7) 0.3164(11)
H30 H 0.5075 0.1324 0.3420
C39 C 0.0860(7) 0.0950(5) 0.7078(7)
H31 H 0.0767 0.0732 0.7314
C40 C 0.0366(17) 0.1884(7) 0.030(2)
H32 H 0.0419 0.1752 -0.0119
C41 C 0.0133(13) 0.2273(6) 0.165(2)
H33 H 0.0026 0.2431 0.2004
C42 C 0.0256(16) 0.1858(7) 0.163(2)
H34 H 0.0304 0.1705 0.2063
C43 C 0.0364(15) 0.2292(8) 0.025(2)
H35 H 0.0425 0.2461 -0.0115
C44 C 0.0089(15) 0.2468(8) 0.098(2)
Fe1A Fe -0.20148(8) 0.13784(4) 0.31244(8)
Fe2A Fe 0.13184(7) 0.12406(3) 0.49981(7)
N1A N -0.1133(4) 0.1241(2) -0.1035(4)
N2A N -0.1021(4) 0.1135(2) 0.3664(4)
N3A N 0.1381(4) 0.0683(2) 0.4976(4)
N4A N -0.1801(4) 0.1539(2) 0.2140(4)
N5A N 0.0766(4) 0.04793(19) 0.4648(4)
H1A H 0.0762 0.0235 0.4665
N6A N -0.3077(5) 0.1411(3) 0.2559(5)
N7A N -0.2128(4) 0.1413(3) 0.4168(5)
N8A N 0.0240(4) 0.10722(19) 0.4359(4)
N9A N -0.1527(4) 0.14902(19) 0.0952(4)
N10A N -0.1916(5) 0.1907(2) 0.3291(6)
N11A N 0.2372(5) 0.1147(3) 0.5603(4)
N12A N -0.2262(4) 0.0859(2) 0.2994(4)
C1A C 0.3791(8) 0.0943(7) 0.6420(10)
H2A H 0.4266 0.0882 0.6709
C2A C -0.2214(6) 0.1220(4) 0.5377(6)
H3A H -0.2243 0.1019 0.5698
C3A C -0.0481(4) 0.0516(2) 0.3910(4)
H4A H -0.0521 0.0254 0.3844
N13A N -0.1741(4) 0.0600(2) 0.3290(4)
H5A H -0.1823 0.0360 0.3271
C4A C -0.1070(5) 0.0750(2) 0.3623(5)
C5A C -0.2421(6) 0.0756(3) 0.1202(5)
H6A H -0.2829 0.0906 0.1005
N14A N -0.1352(5) 0.1786(2) -0.0251(5)
N15A N -0.1845(6) 0.2120(2) 0.2687(6)
H7A H -0.1847 0.2364 0.2694
C6A C -0.2922(6) 0.0761(3) 0.2687(6)
H8A H -0.3069 0.0509 0.2637
C7A C -0.1756(5) 0.0925(2) 0.1544(5)
C8A C -0.1135(7) 0.1590(4) -0.1352(6)
N16A N -0.1504(6) 0.2036(2) 0.0244(5)
H9A H -0.1562 0.2275 0.0143
C9A C -0.1219(8) 0.0299(3) 0.1797(6)
H10A H -0.0819 0.0143 0.1997
C10A C -0.1664(6) 0.2107(3) 0.1475(6)
H11A H -0.1664 0.2371 0.1444
C11A C 0.0158(5) 0.0683(2) 0.4292(5)
C12A C -0.1556(5) 0.1880(3) 0.0903(6)
C13A C 0.2581(6) 0.0777(3) 0.5683(5)
C14A C -0.4159(7) 0.1034(5) 0.2077(7)
H12A H -0.4366 0.0793 0.2009
C15A C 0.1996(5) 0.0514(3) 0.5329(5)
H13A H 0.2052 0.0252 0.5350
C16A C -0.2481(7) 0.0371(3) 0.1153(6)
H14A H -0.2932 0.0262 0.0917
C17A C -0.4259(8) 0.1686(6) 0.1984(9)
H15A H -0.4542 0.1902 0.1861
C18A C -0.2193(5) 0.1140(3) 0.4638(6)
H16A H -0.2226 0.0889 0.4467
C19A C -0.1900(8) 0.0142(3) 0.1439(7)
H17A H -0.1956 -0.0120 0.1396
C20A C -0.2092(8) 0.1878(4) 0.5177(7)
H18A H -0.2040 0.2128 0.5356
C21A C -0.2193(7) 0.1576(4) 0.5651(7)
H19A H -0.2243 0.1624 0.6134
C22A C -0.3414(6) 0.1072(4) 0.2428(7)
C23A C -0.1976(7) 0.2066(3) 0.3912(7)
H20A H -0.1959 0.2326 0.4002
C24A C -0.1034(9) 0.1634(5) -0.2064(9)
H21A H -0.1064 0.1869 -0.2305
C25A C -0.2074(7) 0.1786(4) 0.4442(7)
C26A C -0.1772(6) 0.1923(3) 0.2085(6)
C27A C -0.0883(7) 0.1296(6) -0.2406(8)
H22A H -0.0796 0.1314 -0.2876
C28A C -0.1148(5) 0.0689(3) 0.1852(5)
H23A H -0.0697 0.0797 0.2092
C29A C 0.2877(9) 0.1414(4) 0.5900(7)
H24A H 0.2753 0.1669 0.5824
C30A C 0.3288(7) 0.0657(5) 0.6087(7)
H25A H 0.3415 0.0402 0.6130
C31A C -0.0348(5) 0.1277(2) 0.4050(5)
C32A C -0.1280(7) 0.1891(3) -0.0908(6)
H26A H -0.1320 0.2142 -0.1075
C33A C -0.0304(6) 0.1684(3) 0.4148(9)
C34A C -0.1684(4) 0.1339(2) 0.1567(5)
C35A C -0.0977(5) 0.0937(3) -0.1401(6)
H27A H -0.0950 0.0701 -0.1160
C36A C -0.3477(8) 0.1732(4) 0.2332(8)
H28A H -0.3265 0.1970 0.2394
C37A C 0.3577(11) 0.1313(7) 0.6317(9)
H29A H 0.3914 0.1502 0.6535
C38A C -0.4582(9) 0.1345(7) 0.1836(11)
H30A H -0.5075 0.1324 0.1580
C39A C -0.0860(7) 0.0950(5) -0.2078(7)
H31A H -0.0767 0.0732 -0.2314
C40A C -0.0366(17) 0.1884(7) 0.470(2)
H32A H -0.0419 0.1752 0.5119
C41A C -0.0133(13) 0.2273(6) 0.335(2)
H33A H -0.0026 0.2431 0.2996
C42A C -0.0256(16) 0.1858(7) 0.337(2)
H34A H -0.0304 0.1705 0.2937
C43A C -0.0364(15) 0.2292(8) 0.475(2)
H35A H -0.0425 0.2461 0.5115
C44A C -0.0089(15) 0.2468(8) 0.402(2)
F1 F 0.4388(3) 0.41368(12) 0.0433(3)
F2 F 0.3737(3) 0.46832(14) 0.0131(3)
F3 F 0.4864(3) 0.47045(15) 0.0954(4)
F4 F 0.4033(3) 0.44198(14) 0.1350(3)
B1 B 0.4255(6) 0.4478(3) 0.0727(6)
F5 F 0.8423(4) 0.28380(16) 0.0265(4)
F6 F 0.8142(4) 0.33248(18) -0.0623(4)
F7 F 0.9282(4) 0.31920(18) 0.0088(4)
F8 F 0.8621(5) 0.2781(2) -0.0855(5)
B2 B 0.8621(9) 0.3045(4) -0.0272(9)
F9 F 0.4018(5) 0.0104(3) 0.0627(6)
F10 F 0.3990(7) 0.0709(4) 0.1074(6)
F11 F 0.3051(4) 0.0309(2) 0.0868(5)
F12 F 0.3311(5) 0.0533(3) -0.0161(4)
B3 B 0.3571(9) 0.0425(6) 0.0605(9)
N17 N 0.7159(5) 0.4818(2) 0.1993(5)
C45 C 0.7883(6) 0.4280(3) 0.2925(7)
H36 H 0.7553 0.4089 0.2955
H37 H 0.8140 0.4379 0.3445
H38 H 0.8215 0.4171 0.2713
C46 C 0.7484(5) 0.4592(3) 0.2401(6)
F13 F 0.7715(5) 0.34068(18) 0.2708(5)
F14 F 0.8288(6) 0.2897(2) 0.3309(7)
F15 F 0.7912(8) 0.2897(2) 0.2073(6)
F16 F 0.7206(9) 0.2811(4) 0.2836(10)
B4 B 0.7805(16) 0.3028(7) 0.2684(15)
loop_
_geom_bond_atom_site_label_1
_geom_bond_atom_site_label_2
_geom_bond_site_symmetry_1
_geom_bond_site_symmetry_2
Fe1 N2 1_555 1_555
Fe2 N3 1_555 1_555
N1 C8 1_555 1_555
N2 C4 1_555 1_555
N3 N5 1_555 1_555
N4 Fe1 1_555 1_555
N5 H1 1_555 1_555
N6 Fe1 1_555 1_555
N7 Fe1 1_555 1_555
N8 Fe2 1_555 1_555
N9 C12 1_555 1_555
N10 Fe1 1_555 1_555
N11 Fe2 1_555 1_555
N12 Fe1 1_555 1_555
C1 H2 1_555 1_555
C2 H3 1_555 1_555
C3 H4 1_555 1_555
N13 N12 1_555 1_555
H5 N13 1_555 1_555
C4 C3 1_555 1_555
C5 H6 1_555 1_555
N14 N16 1_555 1_555
N15 N10 1_555 1_555
H7 N15 1_555 1_555
C6 N12 1_555 1_555
H8 C6 1_555 1_555
C7 C5 1_555 1_555
C8 C24 1_555 1_555
N16 H9 1_555 1_555
C9 H10 1_555 1_555
C10 H11 1_555 1_555
C11 N5 1_555 1_555
C12 N16 1_555 1_555
C13 N11 1_555 1_555
C14 H12 1_555 1_555
C15 N3 1_555 1_555
H13 C15 1_555 1_555
C16 C5 1_555 1_555
H14 C16 1_555 1_555
C17 H15 1_555 1_555
C18 N7 1_555 1_555
H16 C18 1_555 1_555
C19 C9 1_555 1_555
H17 C19 1_555 1_555
C20 H18 1_555 1_555
C21 C2 1_555 1_555
H19 C21 1_555 1_555
C22 N6 1_555 1_555
C23 N10 1_555 1_555
H20 C23 1_555 1_555
C24 H21 1_555 1_555
C25 N7 1_555 1_555
C26 N4 1_555 1_555
C27 C24 1_555 1_555
H22 C27 1_555 1_555
C28 C7 1_555 1_555
H23 C28 1_555 1_555
C29 N11 1_555 1_555
H24 C29 1_555 1_555
C30 C1 1_555 1_555
H25 C30 1_555 1_555
C31 N2 1_555 1_555
C32 N14 1_555 1_555
H26 C32 1_555 1_555
C33 C31 1_555 1_555
C34 N4 1_555 1_555
C35 N1 1_555 1_555
H27 C35 1_555 1_555
C36 N6 1_555 1_555
H28 C36 1_555 1_555
C37 C1 1_555 1_555
H29 C37 1_555 1_555
C38 C14 1_555 1_555
H30 C38 1_555 1_555
C39 C27 1_555 1_555
H31 C39 1_555 1_555
C40 C33 1_555 1_555
H32 C40 1_555 1_555
C41 H33 1_555 1_555
C42 C33 1_555 1_555
H34 C42 1_555 1_555
C43 C40 1_555 1_555
H35 C43 1_555 1_555
C44 C41 1_555 1_555
F1 B1 1_555 1_555
F2 B1 1_555 1_555
F3 B1 1_555 1_555
F4 B1 1_555 1_555
F5 B2 1_555 1_555
F6 B2 1_555 1_555
F7 B2 1_555 1_555
F8 B2 1_555 1_555
F9 B3 1_555 1_555
F10 B3 1_555 1_555
F11 B3 1_555 1_555
F12 B3 1_555 1_555
N17 C46 1_555 1_555
C45 H36 1_555 1_555
H37 C45 1_555 1_555
H38 C45 1_555 1_555
C46 C45 1_555 1_555
F13 B4 1_555 1_555
F14 B4 1_555 1_555
F15 B4 1_555 1_555
F16 B4 1_555 1_555
Fe1A N2A 1_555 1_555
Fe2A N1 1_555 1_555
N1A Fe2 1_555 1_555
N2A C4A 1_555 1_555
N3A Fe2A 1_555 1_555
N4A Fe1A 1_555 1_555
N5A N3A 1_555 1_555
H1A N5A 1_555 1_555
N6A Fe1A 1_555 1_555
N7A Fe1A 1_555 1_555
N8A Fe2A 1_555 1_555
N9A Fe2 1_555 1_555
N10A Fe1A 1_555 1_555
N11A Fe2A 1_555 1_555
N12A Fe1A 1_555 1_555
C1A H2A 1_555 1_555
C2A H3A 1_555 1_555
C3A H4A 1_555 1_555
N13A N12A 1_555 1_555
H5A N13A 1_555 1_555
C4A C3A 1_555 1_555
C5A H6A 1_555 1_555
N14A Fe2 1_555 1_555
N15A N10A 1_555 1_555
H7A N15A 1_555 1_555
C6A N12A 1_555 1_555
H8A C6A 1_555 1_555
C7A C5A 1_555 1_555
C8A N1A 1_555 1_555
N16A N14A 1_555 1_555
H9A N16A 1_555 1_555
C9A H10A 1_555 1_555
C10A H11A 1_555 1_555
C11A N5A 1_555 1_555
C12A N9A 1_555 1_555
C13A N11A 1_555 1_555
C14A H12A 1_555 1_555
C15A N3A 1_555 1_555
H13A C15A 1_555 1_555
C16A C5A 1_555 1_555
H14A C16A 1_555 1_555
C17A H15A 1_555 1_555
C18A N7A 1_555 1_555
H16A C18A 1_555 1_555
C19A C9A 1_555 1_555
H17A C19A 1_555 1_555
C20A H18A 1_555 1_555
C21A C2A 1_555 1_555
H19A C21A 1_555 1_555
C22A N6A 1_555 1_555
C23A N10A 1_555 1_555
H20A C23A 1_555 1_555
C24A C8A 1_555 1_555
H21A C24A 1_555 1_555
C25A N7A 1_555 1_555
C26A N4A 1_555 1_555
C27A C24A 1_555 1_555
H22A C27A 1_555 1_555
C28A C7A 1_555 1_555
H23A C28A 1_555 1_555
C29A N11A 1_555 1_555
H24A C29A 1_555 1_555
C30A C1A 1_555 1_555
H25A C30A 1_555 1_555
C31A N2A 1_555 1_555
C32A N14A 1_555 1_555
H26A C32A 1_555 1_555
C33A C31A 1_555 1_555
C34A N4A 1_555 1_555
C35A N1A 1_555 1_555
H27A C35A 1_555 1_555
C36A N6A 1_555 1_555
H28A C36A 1_555 1_555
C37A C1A 1_555 1_555
H29A C37A 1_555 1_555
C38A C14A 1_555 1_555
H30A C38A 1_555 1_555
C39A C27A 1_555 1_555
H31A C39A 1_555 1_555
C40A C33A 1_555 1_555
H32A C40A 1_555 1_555
C41A H33A 1_555 1_555
C42A C33A 1_555 1_555
H34A C42A 1_555 1_555
C43A C40A 1_555 1_555
H35A C43A 1_555 1_555
C44A C41A 1_555 1_555
N8 C11 1_555 1_555
N8 C31 1_555 1_555
N9 C34 1_555 1_555
N9 Fe2A 1_555 1_555
C2 C18 1_555 1_555
C3 C11 1_555 1_555
N13 C4 1_555 1_555
N14 Fe2A 1_555 1_555
N15 C26 1_555 1_555
C6 C22 1_555 1_555
C7 C34 1_555 1_555
C8 C32 1_555 1_555
C9 C28 1_555 1_555
C10 C12 1_555 1_555
C10 C26 1_555 1_555
C13 C15 1_555 1_555
C13 C30 1_555 1_555
C14 C22 1_555 1_555
C16 C19 1_555 1_555
C17 C36 1_555 1_555
C17 C38 1_555 1_555
C20 C21 1_555 1_555
C20 C25 1_555 1_555
C23 C25 1_555 1_555
C29 C37 1_555 1_555
C35 C39 1_555 1_555
C41 C42 1_555 1_555
C43 C44 1_555 1_555
N8A C11A 1_555 1_555
N8A C31A 1_555 1_555
N9A C34A 1_555 1_555
C2A C18A 1_555 1_555
C3A C11A 1_555 1_555
N13A C4A 1_555 1_555
N15A C26A 1_555 1_555
C6A C22A 1_555 1_555
C7A C34A 1_555 1_555
C8A C32A 1_555 1_555
N16A C12A 1_555 1_555
C9A C28A 1_555 1_555
C10A C12A 1_555 1_555
C10A C26A 1_555 1_555
C13A C15A 1_555 1_555
C13A C30A 1_555 1_555
C14A C22A 1_555 1_555
C16A C19A 1_555 1_555
C17A C36A 1_555 1_555
C17A C38A 1_555 1_555
C20A C21A 1_555 1_555
C20A C25A 1_555 1_555
C23A C25A 1_555 1_555
C29A C37A 1_555 1_555
C35A C39A 1_555 1_555
C41A C42A 1_555 1_555
C43A C44A 1_555 1_555

#END
