
#######################################################################
#
#                 Cambridge Crystallographic Data Centre
#                                CCDC 
#
#######################################################################
#
# If this CIF has been generated from an entry in the Cambridge 
# Structural Database, then it will include bibliographic, chemical, 
# crystal, experimental, refinement or atomic coordinate data resulting 
# from the CCDC's data processing and validation procedures.
#
#######################################################################

data_HIZFEB
_chemical_formula_moiety         'C84 H154 O24 Si14 W1'
_chemical_name_systematic        
Tetradecacyclohexyl-bis(silsesquioxane)-tungsten(vi)
_symmetry_cell_setting           orthorhombic
_symmetry_space_group_name_H-M   'C m c a'
_symmetry_Int_Tables_number      64
_space_group_name_Hall           '-C 2ac 2'
loop_
_symmetry_equiv_pos_site_id
_symmetry_equiv_pos_as_xyz
1 x,y,z
2 -x,1/2-y,1/2+z
3 x,-y,-z
4 -x,1/2+y,1/2-z
5 1/2+x,1/2+y,z
6 1/2-x,-y,1/2+z
7 1/2+x,1/2-y,-z
8 1/2-x,y,1/2-z
9 -x,-y,-z
10 x,1/2+y,1/2-z
11 -x,y,z
12 x,1/2-y,1/2+z
13 1/2-x,1/2-y,-z
14 1/2+x,y,1/2-z
15 1/2-x,1/2+y,z
16 1/2+x,-y,1/2+z
_cell_length_a                   19.407(7)
_cell_length_b                   25.163(6)
_cell_length_c                   22.176(3)
_cell_angle_alpha                90
_cell_angle_beta                 90
_cell_angle_gamma                90
_cell_volume                     10829.4
_exptl_crystal_colour            colorless
_cell_formula_units_Z            4
_exptl_crystal_recrystallization_method toluene
loop_
_atom_site_label
_atom_site_type_symbol
_atom_site_fract_x
_atom_site_fract_y
_atom_site_fract_z
C1 C 0.0000 0.4458(13) 0.1989(13)
C2 C 0.0000 0.5025(15) 0.2152(24)
C3 C 0.0000 0.5181(22) 0.2792(27)
C4 C 0.0000 0.4770(30) 0.3257(20)
C5 C 0.0000 0.4203(26) 0.3096(20)
C6 C 0.0000 0.4045(13) 0.2455(20)
C7 C 0.1906 0.3341(13) 0.1248(20)
C9 C 0.2259(30) 0.3859(23) 0.1442(38)
C11 C 0.2884(31) 0.3650(30) 0.1930(35)
C13 C 0.3435(31) 0.3335(28) 0.1594(31)
C15 C 0.3098(29) 0.2830(25) 0.1350(38)
C17 C 0.2503(30) 0.2993(23) 0.0906(24)
C19 C 0.0000 0.1910(15) 0.0273(21)
C20 C 0.0656(40) 0.1634(28) 0.0029(25)
C21 C 0.0610(41) 0.1083(17) 0.0226(27)
C22 C 0.0000 0.0884(25) -0.0169(30)
C23 C 0.0000 0.3053(15) -0.1736(12)
C24 C 0.0000 0.2496(17) -0.1914(24)
C25 C 0.0000 0.2353(22) -0.2555(28)
C26 C 0.0000 0.2772(29) -0.3011(19)
C27 C 0.0000 0.3329(23) -0.2841(20)
C28 C 0.0000 0.3476(14) -0.2197(20)
C29 C 0.2142(35) 0.4376(32) -0.0684(33)
C30 C 0.1784(20) 0.4526(21) -0.1228(29)
C31 C 0.2353(41) 0.4435(50) -0.1706(30)
C32 C 0.2702(43) 0.4952(38) -0.1586(52)
C33 C 0.2848(46) 0.5038(36) -0.0948(60)
C34 C 0.2897(37) 0.4460(50) -0.0716(42)
H2 H -0.0402 0.5185(15) 0.1965(24)
H3 H 0.0402 0.5185(15) 0.1965(24)
H4 H 0.0402 0.5403(22) 0.2858(27)
H5 H -0.0402 0.5403(22) 0.2858(27)
H6 H -0.0401 0.4831(30) 0.3509(20)
H7 H 0.0401 0.4831(30) 0.3509(20)
H8 H -0.0402 0.4043(26) 0.3282(20)
H9 H 0.0402 0.4043(26) 0.3282(20)
H10 H 0.0402 0.3823(13) 0.2389(20)
H11 H -0.0402 0.3823(13) 0.2389(20)
H14 H 0.1935(30) 0.4095(23) 0.1641(38)
H15 H 0.2458(30) 0.4042(23) 0.1099(38)
H18 H 0.3094(31) 0.3955(30) 0.2125(35)
H19 H 0.2680(31) 0.3429(30) 0.2240(35)
H22 H 0.3619(31) 0.3545(28) 0.1264(31)
H23 H 0.3809(31) 0.3245(28) 0.1864(31)
H26 H 0.2912(29) 0.2622(25) 0.1681(38)
H27 H 0.3437(29) 0.2616(25) 0.1140(38)
H30 H 0.2298(30) 0.2675(23) 0.0736(24)
H31 H 0.2694(30) 0.3200(23) 0.0577(24)
H34 H 0.0000 0.1837(15) 0.0707(21)
H35 H 0.0673(40) 0.1654(28) -0.0407(25)
H36 H 0.1067(40) 0.1800(28) 0.0192(25)
H37 H 0.0506(41) 0.1057(17) 0.0653(27)
H38 H 0.1031(41) 0.0889(17) 0.0141(27)
H39 H 0.0000 0.0500(25) -0.0211(30)
H40 H 0.0000 0.1048(25) -0.0565(30)
H42 H -0.0402 0.2331(17) -0.1733(24)
H43 H 0.0402 0.2331(17) -0.1733(24)
H44 H 0.0402 0.2133(22) -0.2626(28)
H45 H -0.0402 0.2133(22) -0.2626(28)
H46 H 0.0401 0.2715(29) -0.3264(19)
H47 H -0.0401 0.2715(29) -0.3264(19)
H48 H -0.0402 0.3493(23) -0.3024(20)
H49 H 0.0402 0.3493(23) -0.3024(20)
H50 H -0.0402 0.3696(14) -0.2126(20)
H51 H 0.0402 0.3696(14) -0.2126(20)
H52 H 0.2051(35) 0.4713(32) -0.0478(33)
H53 H 0.1638(20) 0.4895(21) -0.1216(29)
H54 H 0.1387(20) 0.4301(21) -0.1299(29)
H55 H 0.2642(41) 0.4131(50) -0.1617(30)
H56 H 0.2172(41) 0.4409(50) -0.2113(30)
H57 H 0.3131(43) 0.4964(38) -0.1810(52)
H58 H 0.2412(43) 0.5239(38) -0.1732(52)
H59 H 0.2479(46) 0.5231(36) -0.0752(60)
H60 H 0.3279(46) 0.5228(36) -0.0892(60)
H61 H 0.3121(37) 0.4224(50) -0.1001(42)
H62 H 0.3119(37) 0.4436(50) -0.0325(42)
O1 O 0.0000 0.4632(7) 0.0730(8)
O2 O 0.0681(8) 0.3791(6) 0.1110(6)
O3 O 0.0688(11) 0.2925(6) 0.0519(7)
O4 O 0.0000 0.2829(10) -0.0513(11)
O5 O 0.0663(15) 0.3653(7) -0.0870(8)
O6 O 0.0686(7) 0.4539(6) -0.0305(7)
O7 O 0.1364(10) 0.3727(7) 0.0117(6)
Si1 Si 0.0000 0.4150(3) 0.1224(4)
Si2 Si 0.1128(4) 0.3406(3) 0.0717(3)
Si3 Si 0.0000 0.2666(4) 0.0210(5)
Si4 Si 0.0000 0.3298(4) -0.0996(4)
Si5 Si 0.1139(4) 0.4043(3) -0.0484(3)
W1 W 0.0000 0.5000 0.0000
O1B O 0.0000 0.5368(7) -0.0730(8)
Si1B Si 0.0000 0.5850(3) -0.1224(4)
C1B C 0.0000 0.5542(13) -0.1989(13)
C2B C 0.0000 0.4975(15) -0.2152(24)
C3B C 0.0000 0.4819(22) -0.2792(27)
C4B C 0.0000 0.5230(30) -0.3257(20)
C5B C 0.0000 0.5797(26) -0.3096(20)
C6B C 0.0000 0.5955(13) -0.2455(20)
H10B H 0.0402 0.6177(13) -0.2389(20)
H11B H -0.0402 0.6177(13) -0.2389(20)
H8B H -0.0402 0.5957(26) -0.3282(20)
H9B H 0.0402 0.5957(26) -0.3282(20)
H6B H -0.0401 0.5169(30) -0.3509(20)
H7B H 0.0401 0.5169(30) -0.3509(20)
H4B H 0.0402 0.4597(22) -0.2858(27)
H5B H -0.0402 0.4597(22) -0.2858(27)
H2B H -0.0402 0.4815(15) -0.1965(24)
H3B H 0.0402 0.4815(15) -0.1965(24)
O2B O 0.0681(8) 0.6209(6) -0.1110(6)
Si2B Si 0.1128(4) 0.6594(3) -0.0717(3)
C7B C 0.1906 0.6659(13) -0.1248(20)
C9B C 0.2259(30) 0.6141(23) -0.1442(38)
C11B C 0.2884(31) 0.6350(30) -0.1930(35)
C13B C 0.3435(31) 0.6665(28) -0.1594(31)
C15B C 0.3098(29) 0.7170(25) -0.1350(38)
C17B C 0.2503(30) 0.7007(23) -0.0906(24)
H30B H 0.2298(30) 0.7325(23) -0.0736(24)
H31B H 0.2694(30) 0.6800(23) -0.0577(24)
H26B H 0.2912(29) 0.7378(25) -0.1681(38)
H27B H 0.3437(29) 0.7384(25) -0.1140(38)
H22B H 0.3619(31) 0.6455(28) -0.1264(31)
H23B H 0.3809(31) 0.6755(28) -0.1864(31)
H18B H 0.3094(31) 0.6045(30) -0.2125(35)
H19B H 0.2680(31) 0.6571(30) -0.2240(35)
H14B H 0.1935(30) 0.5905(23) -0.1641(38)
H15B H 0.2458(30) 0.5958(23) -0.1099(38)
O3B O 0.0688(11) 0.7075(6) -0.0519(7)
Si3B Si 0.0000 0.7334(4) -0.0210(5)
C19B C 0.0000 0.8090(15) -0.0273(21)
C20B C 0.0656(40) 0.8366(28) -0.0029(25)
C21B C 0.0610(41) 0.8917(17) -0.0226(27)
C22B C 0.0000 0.9116(25) 0.0169(30)
C21H C -0.0610(41) 0.8917(17) -0.0226(27)
C20H C -0.0656(40) 0.8366(28) -0.0029(25)
H34B H 0.0000 0.8163(15) -0.0707(21)
H35H H -0.0673(40) 0.8346(28) 0.0407(25)
H36H H -0.1067(40) 0.8200(28) -0.0192(25)
H37H H -0.0506(41) 0.8943(17) -0.0653(27)
H38H H -0.1031(41) 0.9111(17) -0.0141(27)
H39B H 0.0000 0.9500(25) 0.0211(30)
H40B H 0.0000 0.8952(25) 0.0565(30)
H37B H 0.0506(41) 0.8943(17) -0.0653(27)
H38B H 0.1031(41) 0.9111(17) -0.0141(27)
H35B H 0.0673(40) 0.8346(28) 0.0407(25)
H36B H 0.1067(40) 0.8200(28) -0.0192(25)
O3H O -0.0688(11) 0.7075(6) -0.0519(7)
Si2H Si -0.1128(4) 0.6594(3) -0.0717(3)
C7H C -0.1906 0.6659(13) -0.1248(20)
C9H C -0.2259(30) 0.6141(23) -0.1442(38)
C11H C -0.2884(31) 0.6350(30) -0.1930(35)
C13H C -0.3435(31) 0.6665(28) -0.1594(31)
C15H C -0.3098(29) 0.7170(25) -0.1350(38)
C17H C -0.2503(30) 0.7007(23) -0.0906(24)
H30H H -0.2298(30) 0.7325(23) -0.0736(24)
H31H H -0.2694(30) 0.6800(23) -0.0577(24)
H26H H -0.2912(29) 0.7378(25) -0.1681(38)
H27H H -0.3437(29) 0.7384(25) -0.1140(38)
H22H H -0.3619(31) 0.6455(28) -0.1264(31)
H23H H -0.3809(31) 0.6755(28) -0.1864(31)
H18H H -0.3094(31) 0.6045(30) -0.2125(35)
H19H H -0.2680(31) 0.6571(30) -0.2240(35)
H14H H -0.1935(30) 0.5905(23) -0.1641(38)
H15H H -0.2458(30) 0.5958(23) -0.1099(38)
O2H O -0.0681(8) 0.6209(6) -0.1110(6)
O7H O -0.1364(10) 0.6273(7) -0.0117(6)
Si5H Si -0.1139(4) 0.5957(3) 0.0484(3)
C29H C -0.2142(35) 0.5624(32) 0.0684(33)
C30H C -0.1784(20) 0.5474(21) 0.1228(29)
C31H C -0.2353(41) 0.5565(50) 0.1706(30)
C32H C -0.2702(43) 0.5048(38) 0.1586(52)
C33H C -0.2848(46) 0.4962(36) 0.0948(60)
C34H C -0.2897(37) 0.5540(50) 0.0716(42)
H52H H -0.2051(35) 0.5287(32) 0.0478(33)
H61H H -0.3121(37) 0.5776(50) 0.1001(42)
H62H H -0.3119(37) 0.5564(50) 0.0325(42)
H59H H -0.2479(46) 0.4769(36) 0.0752(60)
H60H H -0.3279(46) 0.4772(36) 0.0892(60)
H57H H -0.3131(43) 0.5036(38) 0.1810(52)
H58H H -0.2412(43) 0.4761(38) 0.1732(52)
H55H H -0.2642(41) 0.5869(50) 0.1617(30)
H56H H -0.2172(41) 0.5591(50) 0.2113(30)
H53H H -0.1638(20) 0.5105(21) 0.1216(29)
H54H H -0.1387(20) 0.5699(21) 0.1299(29)
O5H O -0.0663(15) 0.6347(7) 0.0870(8)
Si4H Si 0.0000 0.6702(4) 0.0996(4)
C23H C 0.0000 0.6947(15) 0.1736(12)
C24H C 0.0000 0.7504(17) 0.1914(24)
C25H C 0.0000 0.7647(22) 0.2555(28)
C26H C 0.0000 0.7228(29) 0.3011(19)
C27H C 0.0000 0.6671(23) 0.2841(20)
C28H C 0.0000 0.6524(14) 0.2197(20)
H50H H 0.0402 0.6304(14) 0.2126(20)
H51H H -0.0402 0.6304(14) 0.2126(20)
H48H H 0.0402 0.6507(23) 0.3024(20)
H49H H -0.0402 0.6507(23) 0.3024(20)
H46H H -0.0401 0.7285(29) 0.3264(19)
H47H H 0.0401 0.7285(29) 0.3264(19)
H44H H -0.0402 0.7867(22) 0.2626(28)
H45H H 0.0402 0.7867(22) 0.2626(28)
H42H H 0.0402 0.7669(17) 0.1733(24)
H43H H -0.0402 0.7669(17) 0.1733(24)
O4H O 0.0000 0.7171(10) 0.0513(11)
O5B O 0.0663(15) 0.6347(7) 0.0870(8)
Si5B Si 0.1139(4) 0.5957(3) 0.0484(3)
C29B C 0.2142(35) 0.5624(32) 0.0684(33)
C30B C 0.1784(20) 0.5474(21) 0.1228(29)
C31B C 0.2353(41) 0.5565(50) 0.1706(30)
C32B C 0.2702(43) 0.5048(38) 0.1586(52)
C33B C 0.2848(46) 0.4962(36) 0.0948(60)
C34B C 0.2897(37) 0.5540(50) 0.0716(42)
H52B H 0.2051(35) 0.5287(32) 0.0478(33)
H61B H 0.3121(37) 0.5776(50) 0.1001(42)
H62B H 0.3119(37) 0.5564(50) 0.0325(42)
H59B H 0.2479(46) 0.4769(36) 0.0752(60)
H60B H 0.3279(46) 0.4772(36) 0.0892(60)
H57B H 0.3131(43) 0.5036(38) 0.1810(52)
H58B H 0.2412(43) 0.4761(38) 0.1732(52)
H55B H 0.2642(41) 0.5869(50) 0.1617(30)
H56B H 0.2172(41) 0.5591(50) 0.2113(30)
H53B H 0.1638(20) 0.5105(21) 0.1216(29)
H54B H 0.1387(20) 0.5699(21) 0.1299(29)
O6B O 0.0686(7) 0.5461(6) 0.0305(7)
C21J C -0.0610(41) 0.1083(17) 0.0226(27)
C20J C -0.0656(40) 0.1634(28) 0.0029(25)
H35J H -0.0673(40) 0.1654(28) -0.0407(25)
H36J H -0.1067(40) 0.1800(28) 0.0192(25)
H37J H -0.0506(41) 0.1057(17) 0.0653(27)
H38J H -0.1031(41) 0.0889(17) 0.0141(27)
O2J O -0.0681(8) 0.3791(6) 0.1110(6)
Si2J Si -0.1128(4) 0.3406(3) 0.0717(3)
C7J C -0.1906 0.3341(13) 0.1248(20)
C9J C -0.2259(30) 0.3859(23) 0.1442(38)
C11J C -0.2884(31) 0.3650(30) 0.1930(35)
C13J C -0.3435(31) 0.3335(28) 0.1594(31)
C15J C -0.3098(29) 0.2830(25) 0.1350(38)
C17J C -0.2503(30) 0.2993(23) 0.0906(24)
H30J H -0.2298(30) 0.2675(23) 0.0736(24)
H31J H -0.2694(30) 0.3200(23) 0.0577(24)
H26J H -0.2912(29) 0.2622(25) 0.1681(38)
H27J H -0.3437(29) 0.2616(25) 0.1140(38)
H22J H -0.3619(31) 0.3545(28) 0.1264(31)
H23J H -0.3809(31) 0.3245(28) 0.1864(31)
H18J H -0.3094(31) 0.3955(30) 0.2125(35)
H19J H -0.2680(31) 0.3429(30) 0.2240(35)
H14J H -0.1935(30) 0.4095(23) 0.1641(38)
H15J H -0.2458(30) 0.4042(23) 0.1099(38)
O3J O -0.0688(11) 0.2925(6) 0.0519(7)
O7J O -0.1364(10) 0.3727(7) 0.0117(6)
Si5J Si -0.1139(4) 0.4043(3) -0.0484(3)
C29J C -0.2142(35) 0.4376(32) -0.0684(33)
C30J C -0.1784(20) 0.4526(21) -0.1228(29)
C31J C -0.2353(41) 0.4435(50) -0.1706(30)
C32J C -0.2702(43) 0.4952(38) -0.1586(52)
C33J C -0.2848(46) 0.5038(36) -0.0948(60)
C34J C -0.2897(37) 0.4460(50) -0.0716(42)
H52J H -0.2051(35) 0.4713(32) -0.0478(33)
H61J H -0.3121(37) 0.4224(50) -0.1001(42)
H62J H -0.3119(37) 0.4436(50) -0.0325(42)
H59J H -0.2479(46) 0.5231(36) -0.0752(60)
H60J H -0.3279(46) 0.5228(36) -0.0892(60)
H57J H -0.3131(43) 0.4964(38) -0.1810(52)
H58J H -0.2412(43) 0.5239(38) -0.1732(52)
H55J H -0.2642(41) 0.4131(50) -0.1617(30)
H56J H -0.2172(41) 0.4409(50) -0.2113(30)
H53J H -0.1638(20) 0.4895(21) -0.1216(29)
H54J H -0.1387(20) 0.4301(21) -0.1299(29)
O5J O -0.0663(15) 0.3653(7) -0.0870(8)
O6J O -0.0686(7) 0.4539(6) -0.0305(7)
O6H O -0.0686(7) 0.5461(6) 0.0305(7)
O7B O 0.1364(10) 0.6273(7) -0.0117(6)
C8? C 0.1909(21) 0.3098(18) 0.1072(21)
C10? C 0.1664(26) 0.2789(25) 0.1630(22)
C12? C 0.2210(37) 0.2446(25) 0.1865(30)
C14? C 0.2561(43) 0.2084(28) 0.1381(32)
C16? C 0.2803(46) 0.2414(33) 0.0848(38)
C18? C 0.2302(41) 0.2724(24) 0.0542(27)
H1? H 0.0505 0.4458(13) 0.1989(13)
H12? H 0.1760 0.3149(13) 0.1611(20)
H13? H 0.2224(21) 0.3381(18) 0.1201(21)
H16? H 0.1523(26) 0.3038(25) 0.1940(22)
H17? H 0.1268(26) 0.2573(25) 0.1524(22)
H20? H 0.2017(37) 0.2222(25) 0.2178(30)
H21? H 0.2560(37) 0.2668(25) 0.2050(30)
H24? H 0.2951(43) 0.1901(28) 0.1560(32)
H25? H 0.2235(43) 0.1818(28) 0.1243(32)
H28? H 0.3163(46) 0.2651(33) 0.0989(38)
H29? H 0.3011(46) 0.2175(33) 0.0557(38)
H32? H 0.1971(41) 0.2496(24) 0.0341(27)
H33? H 0.2521(41) 0.2949(24) 0.0243(27)
H41? H -0.0505 0.3053(15) -0.1736(12)
loop_
_geom_bond_atom_site_label_1
_geom_bond_atom_site_label_2
_geom_bond_site_symmetry_1
_geom_bond_site_symmetry_2
C1 C2 1_555 1_555
C2 C3 1_555 1_555
C3 C4 1_555 1_555
C4 C5 1_555 1_555
C5 C6 1_555 1_555
C6 C1 1_555 1_555
C7 C9 1_555 1_555
C9 C11 1_555 1_555
C11 C13 1_555 1_555
C13 C15 1_555 1_555
C15 C17 1_555 1_555
C17 C7 1_555 1_555
C19 C20 1_555 1_555
C20 C21 1_555 1_555
C21 C22 1_555 1_555
C22 H39 1_555 1_555
C23 C24 1_555 1_555
C24 C25 1_555 1_555
C25 C26 1_555 1_555
C26 C27 1_555 1_555
C27 C28 1_555 1_555
C28 C23 1_555 1_555
C29 C30 1_555 1_555
C30 C31 1_555 1_555
C31 C32 1_555 1_555
C32 C33 1_555 1_555
C33 C34 1_555 1_555
C34 C29 1_555 1_555
H2 C2 1_555 1_555
H3 C2 1_555 1_555
H4 C3 1_555 1_555
H5 C3 1_555 1_555
H6 C4 1_555 1_555
H7 C4 1_555 1_555
H8 C5 1_555 1_555
H9 C5 1_555 1_555
H10 C6 1_555 1_555
H11 C6 1_555 1_555
H14 C9 1_555 1_555
H15 C9 1_555 1_555
H18 C11 1_555 1_555
H19 C11 1_555 1_555
H22 C13 1_555 1_555
H23 C13 1_555 1_555
H26 C15 1_555 1_555
H27 C15 1_555 1_555
H30 C17 1_555 1_555
H31 C17 1_555 1_555
H34 C19 1_555 1_555
H35 C20 1_555 1_555
H36 C20 1_555 1_555
H37 C21 1_555 1_555
H38 C21 1_555 1_555
H40 C22 1_555 1_555
H42 C24 1_555 1_555
H43 C24 1_555 1_555
H44 C25 1_555 1_555
H45 C25 1_555 1_555
H46 C26 1_555 1_555
H47 C26 1_555 1_555
H48 C27 1_555 1_555
H49 C27 1_555 1_555
H50 C28 1_555 1_555
H51 C28 1_555 1_555
H52 C29 1_555 1_555
H53 C30 1_555 1_555
H54 C30 1_555 1_555
H55 C31 1_555 1_555
H56 C31 1_555 1_555
H57 C32 1_555 1_555
H58 C32 1_555 1_555
H59 C33 1_555 1_555
H60 C33 1_555 1_555
H61 C34 1_555 1_555
H62 C34 1_555 1_555
O1 Si1 1_555 1_555
O2 Si1 1_555 1_555
O3 Si2 1_555 1_555
O4 Si3 1_555 1_555
O5 Si4 1_555 1_555
O6 Si5 1_555 1_555
O7 Si2 1_555 1_555
Si1 C1 1_555 1_555
Si2 C7 1_555 1_555
Si3 C19 1_555 1_555
Si4 C23 1_555 1_555
Si5 C29 1_555 1_555
W1 O1 1_555 1_555
O1B W1 1_555 1_555
Si1B O1B 1_555 1_555
C1B Si1B 1_555 1_555
C2B C1B 1_555 1_555
C3B C2B 1_555 1_555
C4B C3B 1_555 1_555
C5B C4B 1_555 1_555
C6B C1B 1_555 1_555
H10B C6B 1_555 1_555
H11B C6B 1_555 1_555
H8B C5B 1_555 1_555
H9B C5B 1_555 1_555
H6B C4B 1_555 1_555
H7B C4B 1_555 1_555
H4B C3B 1_555 1_555
H5B C3B 1_555 1_555
H2B C2B 1_555 1_555
H3B C2B 1_555 1_555
O2B Si1B 1_555 1_555
Si2B O2B 1_555 1_555
C7B Si2B 1_555 1_555
C9B C7B 1_555 1_555
C11B C9B 1_555 1_555
C13B C11B 1_555 1_555
C15B C13B 1_555 1_555
C17B C7B 1_555 1_555
H30B C17B 1_555 1_555
H31B C17B 1_555 1_555
H26B C15B 1_555 1_555
H27B C15B 1_555 1_555
H22B C13B 1_555 1_555
H23B C13B 1_555 1_555
H18B C11B 1_555 1_555
H19B C11B 1_555 1_555
H14B C9B 1_555 1_555
H15B C9B 1_555 1_555
O3B Si2B 1_555 1_555
Si3B O3B 1_555 1_555
C19B Si3B 1_555 1_555
C20B C19B 1_555 1_555
C21B C20B 1_555 1_555
C22B C21B 1_555 1_555
C21H C22B 1_555 1_555
C20H C19B 1_555 1_555
H34B C19B 1_555 1_555
H35H C20H 1_555 1_555
H36H C20H 1_555 1_555
H37H C21H 1_555 1_555
H38H C21H 1_555 1_555
H39B C22B 1_555 1_555
H40B C22B 1_555 1_555
H37B C21B 1_555 1_555
H38B C21B 1_555 1_555
H35B C20B 1_555 1_555
H36B C20B 1_555 1_555
O3H Si3B 1_555 1_555
Si2H O3H 1_555 1_555
C7H Si2H 1_555 1_555
C9H C7H 1_555 1_555
C11H C9H 1_555 1_555
C13H C11H 1_555 1_555
C15H C13H 1_555 1_555
C17H C7H 1_555 1_555
H30H C17H 1_555 1_555
H31H C17H 1_555 1_555
H26H C15H 1_555 1_555
H27H C15H 1_555 1_555
H22H C13H 1_555 1_555
H23H C13H 1_555 1_555
H18H C11H 1_555 1_555
H19H C11H 1_555 1_555
H14H C9H 1_555 1_555
H15H C9H 1_555 1_555
O2H Si1B 1_555 1_555
O7H Si2H 1_555 1_555
Si5H O7H 1_555 1_555
C29H Si5H 1_555 1_555
C30H C29H 1_555 1_555
C31H C30H 1_555 1_555
C32H C31H 1_555 1_555
C33H C32H 1_555 1_555
C34H C29H 1_555 1_555
H52H C29H 1_555 1_555
H61H C34H 1_555 1_555
H62H C34H 1_555 1_555
H59H C33H 1_555 1_555
H60H C33H 1_555 1_555
H57H C32H 1_555 1_555
H58H C32H 1_555 1_555
H55H C31H 1_555 1_555
H56H C31H 1_555 1_555
H53H C30H 1_555 1_555
H54H C30H 1_555 1_555
O5H Si5H 1_555 1_555
Si4H O5H 1_555 1_555
C23H Si4H 1_555 1_555
C24H C23H 1_555 1_555
C25H C24H 1_555 1_555
C26H C25H 1_555 1_555
C27H C26H 1_555 1_555
C28H C23H 1_555 1_555
H50H C28H 1_555 1_555
H51H C28H 1_555 1_555
H48H C27H 1_555 1_555
H49H C27H 1_555 1_555
H46H C26H 1_555 1_555
H47H C26H 1_555 1_555
H44H C25H 1_555 1_555
H45H C25H 1_555 1_555
H42H C24H 1_555 1_555
H43H C24H 1_555 1_555
O4H Si3B 1_555 1_555
O5B Si4H 1_555 1_555
Si5B O5B 1_555 1_555
C29B Si5B 1_555 1_555
C30B C29B 1_555 1_555
C31B C30B 1_555 1_555
C32B C31B 1_555 1_555
C33B C32B 1_555 1_555
C34B C29B 1_555 1_555
H52B C29B 1_555 1_555
H61B C34B 1_555 1_555
H62B C34B 1_555 1_555
H59B C33B 1_555 1_555
H60B C33B 1_555 1_555
H57B C32B 1_555 1_555
H58B C32B 1_555 1_555
H55B C31B 1_555 1_555
H56B C31B 1_555 1_555
H53B C30B 1_555 1_555
H54B C30B 1_555 1_555
O6B W1 1_555 1_555
C21J C22 1_555 1_555
C20J C19 1_555 1_555
H35J C20J 1_555 1_555
H36J C20J 1_555 1_555
H37J C21J 1_555 1_555
H38J C21J 1_555 1_555
O2J Si1 1_555 1_555
Si2J O2J 1_555 1_555
C7J Si2J 1_555 1_555
C9J C7J 1_555 1_555
C11J C9J 1_555 1_555
C13J C11J 1_555 1_555
C15J C13J 1_555 1_555
C17J C7J 1_555 1_555
H30J C17J 1_555 1_555
H31J C17J 1_555 1_555
H26J C15J 1_555 1_555
H27J C15J 1_555 1_555
H22J C13J 1_555 1_555
H23J C13J 1_555 1_555
H18J C11J 1_555 1_555
H19J C11J 1_555 1_555
H14J C9J 1_555 1_555
H15J C9J 1_555 1_555
O3J Si3 1_555 1_555
O7J Si2J 1_555 1_555
Si5J O7J 1_555 1_555
C29J Si5J 1_555 1_555
C30J C29J 1_555 1_555
C31J C30J 1_555 1_555
C32J C31J 1_555 1_555
C33J C32J 1_555 1_555
C34J C29J 1_555 1_555
H52J C29J 1_555 1_555
H61J C34J 1_555 1_555
H62J C34J 1_555 1_555
H59J C33J 1_555 1_555
H60J C33J 1_555 1_555
H57J C32J 1_555 1_555
H58J C32J 1_555 1_555
H55J C31J 1_555 1_555
H56J C31J 1_555 1_555
H53J C30J 1_555 1_555
H54J C30J 1_555 1_555
O5J Si4 1_555 1_555
O6J W1 1_555 1_555
O6H W1 1_555 1_555
O7B Si2B 1_555 1_555
O2 Si2 1_555 1_555
O3 Si3 1_555 1_555
O4 Si4 1_555 1_555
O5 Si5 1_555 1_555
O6 W1 1_555 1_555
O7 Si5 1_555 1_555
C5B C6B 1_555 1_555
C15B C17B 1_555 1_555
C21H C20H 1_555 1_555
Si2H O2H 1_555 1_555
C15H C17H 1_555 1_555
Si5H O6H 1_555 1_555
C33H C34H 1_555 1_555
Si4H O4H 1_555 1_555
C27H C28H 1_555 1_555
Si5B O6B 1_555 1_555
Si5B O7B 1_555 1_555
C33B C34B 1_555 1_555
C21J C20J 1_555 1_555
Si2J O3J 1_555 1_555
C15J C17J 1_555 1_555
Si5J O5J 1_555 1_555
Si5J O6J 1_555 1_555
C33J C34J 1_555 1_555

#END
