
#######################################################################
#
#                 Cambridge Crystallographic Data Centre
#                                CCDC 
#
#######################################################################
#
# If this CIF has been generated from an entry in the Cambridge 
# Structural Database, then it will include bibliographic, chemical, 
# crystal, experimental, refinement or atomic coordinate data resulting 
# from the CCDC's data processing and validation procedures.
#
#######################################################################

data_HOJBIT
_chemical_formula_moiety         
'C90 H66 Fe2 N24 4+,4(C1 F3 O3 S1 1-),x(C2 H3 N1)'
_chemical_name_systematic        
'tris(\m-4-azido-N,N-bis(4-((pyridin-2-ylmethylene)amino)phenyl)aniline)-di-iron tetrakis(trifluoromethanesulfonate) acetonitrile solvate'
_symmetry_cell_setting           orthorhombic
_symmetry_space_group_name_H-M   'P c c n'
_symmetry_Int_Tables_number      56
_space_group_name_Hall           '-P 2ab 2ac'
loop_
_symmetry_equiv_pos_site_id
_symmetry_equiv_pos_as_xyz
1 x,y,z
2 1/2-x,1/2-y,z
3 -x,1/2+y,1/2-z
4 1/2+x,-y,1/2-z
5 -x,-y,-z
6 1/2+x,1/2+y,-z
7 x,1/2-y,1/2+z
8 1/2-x,y,1/2+z
_cell_length_a                   30.401(2)
_cell_length_b                   34.672(2)
_cell_length_c                   21.1517(14)
_cell_angle_alpha                90
_cell_angle_beta                 90
_cell_angle_gamma                90
_cell_volume                     22295.2
_exptl_crystal_colour            purple
_exptl_crystal_description       block
_cell_formula_units_Z            8
loop_
_atom_site_label
_atom_site_type_symbol
_atom_site_fract_x
_atom_site_fract_y
_atom_site_fract_z
Fe1 Fe 0.25521(4) 0.44236(4) 0.08531(7)
Fe2 Fe 0.58296(4) 0.29496(4) 0.18362(7)
N1 N 0.1993(3) 0.4138(3) 0.0796(4)
N2 N 0.2752(2) 0.39714(19) 0.0362(3)
N3 N 0.5776(2) 0.3372(2) 0.1207(3)
N4 N 0.6365(3) 0.3253(2) 0.2062(4)
N5 N 0.4455(2) 0.3645(2) -0.0595(3)
N6 N 0.4805(4) 0.3429(3) -0.3186(5)
N7 N 0.4515(6) 0.3264(6) -0.3439(9)
N8 N 0.4229(7) 0.3124(7) -0.3707(11)
N9 N 0.2286(3) 0.4822(2) 0.1411(4)
N10 N 0.2672(2) 0.4172(2) 0.1689(4)
N11 N 0.5321(2) 0.2642(2) 0.1521(4)
N12 N 0.6141(3) 0.2635(2) 0.1196(4)
N13 N 0.3542(2) 0.2781(2) 0.2262(4)
N14 N 0.2802(4) 0.1666(4) 0.3852(6)
N15 N 0.2588(7) 0.1046(5) 0.3550(9)
N16 N 0.2746(7) 0.1343(6) 0.3607(9)
C1 C 0.1600(4) 0.4238(4) 0.1010(7)
H1 H 0.1572 0.4475 0.1231
C2 C 0.1213(4) 0.4003(5) 0.0925(8)
H2 H 0.0934 0.4088 0.1075
C3 C 0.1257(4) 0.3655(5) 0.0622(7)
H3 H 0.1013 0.3488 0.0568
C4 C 0.1657(4) 0.3561(4) 0.0407(6)
H4 H 0.1693 0.3325 0.0183
C5 C 0.2016(3) 0.3796(3) 0.0500(5)
C6 C 0.2463(3) 0.3707(3) 0.0263(4)
H5 H 0.2531 0.3472 0.0055
C7 C 0.3191(3) 0.3897(2) 0.0124(4)
C8 C 0.3366(3) 0.4110(2) -0.0363(4)
H6 H 0.3199 0.4316 -0.0536
C9 C 0.3780(3) 0.4033(2) -0.0607(4)
H7 H 0.3898 0.4189 -0.0936
C10 C 0.4022(3) 0.3725(2) -0.0368(4)
C11 C 0.3835(3) 0.3497(3) 0.0090(5)
H8 H 0.3989 0.3276 0.0234
C12 C 0.3429(3) 0.3582(3) 0.0346(5)
H9 H 0.3312 0.3425 0.0673
C13 C 0.4785(3) 0.3572(2) -0.0150(4)
C14 C 0.5073(3) 0.3255(3) -0.0198(4)
H10 H 0.5046 0.3085 -0.0548
C15 C 0.5387(3) 0.3187(3) 0.0238(4)
H11 H 0.5577 0.2972 0.0193
C16 C 0.5432(3) 0.3433(3) 0.0757(4)
C17 C 0.5157(3) 0.3753(3) 0.0811(5)
H12 H 0.5192 0.3927 0.1155
C18 C 0.4832(3) 0.3817(3) 0.0361(5)
H13 H 0.4640 0.4031 0.0406
C19 C 0.6084(3) 0.3617(3) 0.1226(4)
H14 H 0.6092 0.3826 0.0935
C20 C 0.6419(3) 0.3573(3) 0.1692(5)
C21 C 0.6784(4) 0.3813(3) 0.1789(6)
H15 H 0.6831 0.4030 0.1522
C22 C 0.7071(4) 0.3737(3) 0.2265(7)
H16 H 0.7319 0.3899 0.2329
C23 C 0.7005(4) 0.3429(4) 0.2650(7)
H17 H 0.7193 0.3386 0.3002
C24 C 0.6653(4) 0.3173(3) 0.2524(6)
H18 H 0.6621 0.2944 0.2767
C25 C 0.45424(19) 0.35934(17) -0.1246(2)
C26 C 0.42088(16) 0.34776(18) -0.1654(3)
H19 H 0.3921 0.3433 -0.1495
C27 C 0.4296(2) 0.3427(2) -0.2293(3)
H20 H 0.4068 0.3348 -0.2572
C28 C 0.4718(2) 0.3492(2) -0.2526(2)
C29 C 0.50513(18) 0.3608(2) -0.2118(3)
H21 H 0.5339 0.3652 -0.2277
C30 C 0.49636(17) 0.36584(19) -0.1479(3)
H22 H 0.5192 0.3738 -0.1200
C31 C 0.2099(4) 0.5153(3) 0.1239(6)
H23 H 0.2118 0.5237 0.0812
C32 C 0.1875(4) 0.5380(4) 0.1687(7)
H24 H 0.1742 0.5616 0.1560
C33 C 0.1848(4) 0.5267(4) 0.2284(7)
H25 H 0.1685 0.5418 0.2577
C34 C 0.2056(4) 0.4932(3) 0.2486(6)
H26 H 0.2051 0.4855 0.2917
C35 C 0.2273(3) 0.4712(3) 0.2024(6)
C36 C 0.2495(3) 0.4353(3) 0.2142(5)
H27 H 0.2509 0.4252 0.2559
C37 C 0.2882(3) 0.3812(3) 0.1820(4)
C38 C 0.3321(4) 0.3806(3) 0.1998(7)
H28 H 0.3479 0.4042 0.2010
C39 C 0.3530(4) 0.3478(3) 0.2153(7)
H29 H 0.3830 0.3486 0.2281
C40 C 0.3313(3) 0.3127(3) 0.2128(4)
C41 C 0.2879(3) 0.3140(3) 0.1959(4)
H30 H 0.2715 0.2906 0.1945
C42 C 0.2671(3) 0.3484(3) 0.1807(4)
H31 H 0.2369 0.3481 0.1691
C43 C 0.3989(3) 0.2732(2) 0.2083(5)
C44 C 0.4120(4) 0.2856(3) 0.1492(6)
H32 H 0.3908 0.2959 0.1208
C45 C 0.4568(3) 0.2832(3) 0.1303(5)
H33 H 0.4660 0.2925 0.0902
C46 C 0.4863(3) 0.2670(3) 0.1714(4)
C47 C 0.4729(3) 0.2531(3) 0.2287(5)
H34 H 0.4934 0.2406 0.2557
C48 C 0.4293(3) 0.2573(3) 0.2473(5)
H35 H 0.4206 0.2488 0.2882
C49 C 0.5426(3) 0.2392(3) 0.1094(5)
H36 H 0.5211 0.2222 0.0923
C50 C 0.5881(3) 0.2376(3) 0.0880(5)
C51 C 0.6018(4) 0.2149(3) 0.0399(6)
H37 H 0.5826 0.1970 0.0201
C52 C 0.6458(4) 0.2191(4) 0.0206(7)
H38 H 0.6569 0.2040 -0.0133
C53 C 0.6726(4) 0.2449(4) 0.0505(7)
H39 H 0.7023 0.2481 0.0373
C54 C 0.6555(4) 0.2669(4) 0.1017(6)
H40 H 0.6742 0.2844 0.1234
C55 C 0.3343(2) 0.24944(15) 0.2631(3)
C56 C 0.3318(2) 0.21154(17) 0.2420(2)
H41 H 0.3428 0.2049 0.2014
C57 C 0.3134(2) 0.18330(14) 0.2804(3)
H42 H 0.3117 0.1574 0.2660
C58 C 0.2974(3) 0.1930(2) 0.3399(3)
C59 C 0.2999(3) 0.2309(2) 0.3610(3)
H43 H 0.2889 0.2375 0.4017
C60 C 0.3183(3) 0.25911(17) 0.3226(3)
H44 H 0.3200 0.2850 0.3371
N17 N 0.2434(3) 0.4717(2) 0.0073(4)
N18 N 0.3105(3) 0.4724(2) 0.0814(4)
N19 N 0.5506(2) 0.3215(2) 0.2522(4)
N20 N 0.5919(3) 0.2565(3) 0.2509(4)
N21 N 0.4568(3) 0.4623(2) 0.2459(4)
N22 N 0.5041(5) 0.5815(4) 0.4192(7)
N23 N 0.4808(8) 0.6118(6) 0.4240(11)
N24 N 0.4603(8) 0.6396(7) 0.4252(12)
C61 C 0.2083(4) 0.4692(4) -0.0331(6)
H45 H 0.1860 0.4505 -0.0258
C62 C 0.2051(5) 0.4948(5) -0.0868(7)
H46 H 0.1812 0.4928 -0.1155
C63 C 0.2358(5) 0.5211(4) -0.0955(7)
H47 H 0.2328 0.5393 -0.1287
C64 C 0.2708(4) 0.5223(4) -0.0585(6)
H48 H 0.2938 0.5400 -0.0677
C65 C 0.2745(4) 0.4978(3) -0.0058(5)
C66 C 0.3115(3) 0.4975(3) 0.0358(5)
H49 H 0.3355 0.5148 0.0304
C67 C 0.3472(3) 0.4704(2) 0.1235(4)
C68 C 0.3444(3) 0.4849(3) 0.1844(4)
H50 H 0.3180 0.4968 0.1983
C69 C 0.3804(3) 0.4820(3) 0.2254(5)
H51 H 0.3778 0.4915 0.2674
C70 C 0.4192(3) 0.4658(2) 0.2060(5)
C71 C 0.4222(3) 0.4526(3) 0.1436(5)
H52 H 0.4493 0.4426 0.1283
C72 C 0.3868(3) 0.4538(3) 0.1047(5)
H53 H 0.3890 0.4430 0.0635
C73 C 0.4801(3) 0.4271(3) 0.2480(4)
C74 C 0.5262(3) 0.4262(3) 0.2472(5)
H54 H 0.5421 0.4498 0.2471
C75 C 0.5490(3) 0.3913(3) 0.2464(5)
H55 H 0.5802 0.3912 0.2439
C76 C 0.5261(3) 0.3569(3) 0.2494(4)
C77 C 0.4819(3) 0.3581(3) 0.2501(6)
H56 H 0.4658 0.3346 0.2496
C78 C 0.4594(3) 0.3927(3) 0.2517(5)
H57 H 0.4282 0.3923 0.2554
C79 C 0.5507(3) 0.3035(3) 0.3035(5)
H58 H 0.5361 0.3139 0.3394
C80 C 0.5730(3) 0.2668(3) 0.3079(5)
C81 C 0.5748(4) 0.2425(3) 0.3602(6)
H59 H 0.5608 0.2501 0.3983
C82 C 0.5959(4) 0.2089(4) 0.3576(7)
H60 H 0.5981 0.1928 0.3939
C83 C 0.6149(4) 0.1979(4) 0.3002(7)
H61 H 0.6302 0.1741 0.2972
C84 C 0.6115(4) 0.2220(4) 0.2467(6)
H62 H 0.6232 0.2137 0.2073
C85 C 0.4689(3) 0.49277(17) 0.2900(3)
C86 C 0.4576(3) 0.53083(19) 0.2772(3)
H63 H 0.4422 0.5370 0.2394
C87 C 0.4689(3) 0.55984(16) 0.3195(4)
H64 H 0.4612 0.5858 0.3107
C88 C 0.4915(3) 0.5508(2) 0.3747(3)
C89 C 0.5027(4) 0.5127(3) 0.3875(3)
H65 H 0.5182 0.5066 0.4253
C90 C 0.4914(4) 0.48373(18) 0.3452(4)
H66 H 0.4991 0.4577 0.3540
S1 S 0.47194(12) 0.29771(12) 0.45894(17)
C91 C 0.4197(4) 0.2660(4) 0.4580(6)
O1 O 0.5061(3) 0.2700(3) 0.4712(5)
O2 O 0.4735(4) 0.3142(4) 0.3983(5)
O3 O 0.4649(3) 0.3231(3) 0.5108(5)
F1 F 0.4140(4) 0.2511(3) 0.5130(5)
F2 F 0.3873(3) 0.2891(3) 0.4449(5)
F3 F 0.4239(4) 0.2383(3) 0.4172(5)
S2 S 0.60984(10) 0.47695(7) 0.10686(13)
C92 C 0.5549(4) 0.4963(3) 0.0811(6)
O4 O 0.6235(3) 0.4522(2) 0.0556(3)
O5 O 0.6368(2) 0.51147(18) 0.1124(3)
O6 O 0.6027(3) 0.4566(2) 0.1637(3)
F4 F 0.5601(3) 0.5150(2) 0.0278(4)
F5 F 0.5283(2) 0.4665(2) 0.0735(4)
F6 F 0.5393(3) 0.5202(3) 0.1238(5)
S3 S 0.3388(3) 0.5830(3) 0.2776(5)
C93 C 0.3296(8) 0.6302(6) 0.3248(10)
O7 O 0.3707(7) 0.5907(7) 0.2284(9)
O8 O 0.2963(6) 0.5684(6) 0.2584(10)
O9 O 0.3536(7) 0.5553(6) 0.3229(9)
F7 F 0.3122(7) 0.6555(5) 0.2862(10)
F8 F 0.3048(8) 0.6268(7) 0.3760(10)
F9 F 0.3684(6) 0.6417(7) 0.3446(10)
N25 N 0.3856(8) 0.6251(7) 0.0465(10)
C94 C 0.4031(7) 0.5940(7) 0.0663(10)
C95 C 0.4214(7) 0.5584(6) 0.0921(10)
H67 H 0.4028 0.5493 0.1269
H68 H 0.4512 0.5634 0.1080
H69 H 0.4225 0.5387 0.0589
N26 N 0.6553(9) 0.5927(8) 0.2547(12)
C96 C 0.5850(6) 0.5537(5) 0.2470(8)
H70 H 0.5610 0.5720 0.2393
H71 H 0.5797 0.5401 0.2869
H72 H 0.5863 0.5350 0.2123
C97 C 0.6233(8) 0.5729(6) 0.2505(10)
N27? N 0.5156(6) 0.3487(6) -0.3471(10)
N28? N 0.5490(7) 0.3491(7) -0.3702(11)
N29? N 0.2496(11) 0.1458(13) 0.3667(18)
N30? N 0.2174(10) 0.1289(12) 0.368(2)
N31? N 0.4631(12) 0.4316(11) -0.5169(12)
N32? N 0.4744(12) 0.4305(11) -0.4655(13)
S4? S 0.3330(4) 0.5921(4) 0.2504(6)
C98? C 0.3310(9) 0.6233(8) 0.3378(11)
F10? F 0.2969(9) 0.6095(9) 0.3684(13)
F11? F 0.3222(11) 0.6602(7) 0.3254(15)
F12? F 0.3664(9) 0.6180(10) 0.3706(14)
O10? O 0.3117(10) 0.5595(7) 0.2755(14)
O11? O 0.3090(9) 0.6231(7) 0.2192(13)
O12? O 0.3807(7) 0.5958(10) 0.2468(14)
O13? O 0.2118(3) 0.2783(3) 0.0996(4)
O14? O 0.1958(4) 0.2239(3) 0.0454(5)
O15? O 0.2161(3) 0.2793(3) -0.0097(5)
F13? F 0.2118(3) 0.2783(3) 0.0996(4)
F14? F 0.1958(4) 0.2239(3) 0.0454(5)
F15? F 0.2161(3) 0.2793(3) -0.0097(5)
C99? C 0.2758(2) 0.24222(16) 0.0449(3)
S5? S 0.2242(2) 0.25778(16) 0.0449(3)
loop_
_geom_bond_atom_site_label_1
_geom_bond_atom_site_label_2
_geom_bond_site_symmetry_1
_geom_bond_site_symmetry_2
Fe1 N1 1_555 1_555
Fe2 N3 1_555 1_555
N1 C1 1_555 1_555
N2 Fe1 1_555 1_555
N3 C16 1_555 1_555
N4 Fe2 1_555 1_555
N5 C10 1_555 1_555
N6 N7 1_555 1_555
N7 N8 1_555 1_555
N9 Fe1 1_555 1_555
N10 Fe1 1_555 1_555
N11 Fe2 1_555 1_555
N12 Fe2 1_555 1_555
N13 C40 1_555 1_555
N14 N16 1_555 1_555
N15 N16 1_555 1_555
C1 H1 1_555 1_555
C2 C1 1_555 1_555
H2 C2 1_555 1_555
C3 C2 1_555 1_555
H3 C3 1_555 1_555
C4 C3 1_555 1_555
H4 C4 1_555 1_555
C5 N1 1_555 1_555
C6 N2 1_555 1_555
H5 C6 1_555 1_555
C7 N2 1_555 1_555
C8 C7 1_555 1_555
H6 C8 1_555 1_555
C9 C8 1_555 1_555
H7 C9 1_555 1_555
C10 C9 1_555 1_555
C11 C10 1_555 1_555
H8 C11 1_555 1_555
C12 C7 1_555 1_555
H9 C12 1_555 1_555
C13 N5 1_555 1_555
C14 C13 1_555 1_555
H10 C14 1_555 1_555
C15 C14 1_555 1_555
H11 C15 1_555 1_555
C16 C15 1_555 1_555
C17 C16 1_555 1_555
H12 C17 1_555 1_555
C18 C13 1_555 1_555
H13 C18 1_555 1_555
C19 N3 1_555 1_555
H14 C19 1_555 1_555
C20 N4 1_555 1_555
C21 C20 1_555 1_555
H15 C21 1_555 1_555
C22 C21 1_555 1_555
H16 C22 1_555 1_555
C23 C22 1_555 1_555
H17 C23 1_555 1_555
C24 N4 1_555 1_555
H18 C24 1_555 1_555
C25 N5 1_555 1_555
C26 C25 1_555 1_555
H19 C26 1_555 1_555
C27 C26 1_555 1_555
H20 C27 1_555 1_555
C28 N6 1_555 1_555
C29 C28 1_555 1_555
H21 C29 1_555 1_555
C30 C25 1_555 1_555
H22 C30 1_555 1_555
C31 N9 1_555 1_555
H23 C31 1_555 1_555
C32 C31 1_555 1_555
H24 C32 1_555 1_555
C33 C32 1_555 1_555
H25 C33 1_555 1_555
C34 C33 1_555 1_555
H26 C34 1_555 1_555
C35 N9 1_555 1_555
C36 N10 1_555 1_555
H27 C36 1_555 1_555
C37 N10 1_555 1_555
C38 C37 1_555 1_555
H28 C38 1_555 1_555
C39 C38 1_555 1_555
H29 C39 1_555 1_555
C40 C39 1_555 1_555
C41 C40 1_555 1_555
H30 C41 1_555 1_555
C42 C37 1_555 1_555
H31 C42 1_555 1_555
C43 N13 1_555 1_555
C44 C43 1_555 1_555
H32 C44 1_555 1_555
C45 C44 1_555 1_555
H33 C45 1_555 1_555
C46 N11 1_555 1_555
C47 C46 1_555 1_555
H34 C47 1_555 1_555
C48 C43 1_555 1_555
H35 C48 1_555 1_555
C49 N11 1_555 1_555
H36 C49 1_555 1_555
C50 N12 1_555 1_555
C51 C50 1_555 1_555
H37 C51 1_555 1_555
C52 C51 1_555 1_555
H38 C52 1_555 1_555
C53 C52 1_555 1_555
H39 C53 1_555 1_555
C54 N12 1_555 1_555
H40 C54 1_555 1_555
C55 N13 1_555 1_555
C56 C55 1_555 1_555
H41 C56 1_555 1_555
C57 C56 1_555 1_555
H42 C57 1_555 1_555
C58 N14 1_555 1_555
C59 C58 1_555 1_555
H43 C59 1_555 1_555
C60 C55 1_555 1_555
H44 C60 1_555 1_555
N17 Fe1 1_555 1_555
N18 Fe1 1_555 1_555
N19 Fe2 1_555 1_555
N20 Fe2 1_555 1_555
N21 C70 1_555 1_555
N22 N23 1_555 1_555
N23 N24 1_555 1_555
C61 N17 1_555 1_555
H45 C61 1_555 1_555
C62 C61 1_555 1_555
H46 C62 1_555 1_555
C63 C62 1_555 1_555
H47 C63 1_555 1_555
C64 C63 1_555 1_555
H48 C64 1_555 1_555
C65 N17 1_555 1_555
C66 N18 1_555 1_555
H49 C66 1_555 1_555
C67 N18 1_555 1_555
C68 C67 1_555 1_555
H50 C68 1_555 1_555
C69 C68 1_555 1_555
H51 C69 1_555 1_555
C70 C69 1_555 1_555
C71 C70 1_555 1_555
H52 C71 1_555 1_555
C72 C67 1_555 1_555
H53 C72 1_555 1_555
C73 N21 1_555 1_555
C74 C73 1_555 1_555
H54 C74 1_555 1_555
C75 C74 1_555 1_555
H55 C75 1_555 1_555
C76 N19 1_555 1_555
C77 C76 1_555 1_555
H56 C77 1_555 1_555
C78 C73 1_555 1_555
H57 C78 1_555 1_555
C79 N19 1_555 1_555
H58 C79 1_555 1_555
C80 N20 1_555 1_555
C81 C80 1_555 1_555
H59 C81 1_555 1_555
C82 C81 1_555 1_555
H60 C82 1_555 1_555
C83 C82 1_555 1_555
H61 C83 1_555 1_555
C84 N20 1_555 1_555
H62 C84 1_555 1_555
C85 N21 1_555 1_555
C86 C85 1_555 1_555
H63 C86 1_555 1_555
C87 C86 1_555 1_555
H64 C87 1_555 1_555
C88 N22 1_555 1_555
C89 C88 1_555 1_555
H65 C89 1_555 1_555
C90 C85 1_555 1_555
H66 C90 1_555 1_555
S1 C91 1_555 1_555
C91 F1 1_555 1_555
O1 S1 1_555 1_555
O2 S1 1_555 1_555
O3 S1 1_555 1_555
F2 C91 1_555 1_555
F3 C91 1_555 1_555
S2 C92 1_555 1_555
C92 F4 1_555 1_555
O4 S2 1_555 1_555
O5 S2 1_555 1_555
O6 S2 1_555 1_555
F5 C92 1_555 1_555
F6 C92 1_555 1_555
S3 C93 1_555 1_555
C93 F7 1_555 1_555
O7 S3 1_555 1_555
O8 S3 1_555 1_555
O9 S3 1_555 1_555
F8 C93 1_555 1_555
F9 C93 1_555 1_555
N25 C94 1_555 1_555
C94 C95 1_555 1_555
C95 H67 1_555 1_555
H68 C95 1_555 1_555
H69 C95 1_555 1_555
N26 C97 1_555 1_555
C96 H70 1_555 1_555
H71 C96 1_555 1_555
H72 C96 1_555 1_555
C97 C96 1_555 1_555
C4 C5 1_555 1_555
C5 C6 1_555 1_555
C11 C12 1_555 1_555
C17 C18 1_555 1_555
C19 C20 1_555 1_555
C23 C24 1_555 1_555
C27 C28 1_555 1_555
C29 C30 1_555 1_555
C34 C35 1_555 1_555
C35 C36 1_555 1_555
C41 C42 1_555 1_555
C45 C46 1_555 1_555
C47 C48 1_555 1_555
C49 C50 1_555 1_555
C53 C54 1_555 1_555
C57 C58 1_555 1_555
C59 C60 1_555 1_555
C64 C65 1_555 1_555
C65 C66 1_555 1_555
C71 C72 1_555 1_555
C75 C76 1_555 1_555
C77 C78 1_555 1_555
C79 C80 1_555 1_555
C83 C84 1_555 1_555
C87 C88 1_555 1_555
C89 C90 1_555 1_555

#END
