
#######################################################################
#
#                 Cambridge Crystallographic Data Centre
#                                CCDC 
#
#######################################################################
#
# If this CIF has been generated from an entry in the Cambridge 
# Structural Database, then it will include bibliographic, chemical, 
# crystal, experimental, refinement or atomic coordinate data resulting 
# from the CCDC's data processing and validation procedures.
#
#######################################################################

data_HOMROR
_chemical_formula_moiety         
'C144 H84 N12 O36 Ti4 8-,8(C8 H20 N1 1+),16.5(H2 O1)'
_chemical_name_systematic        
"heptakis(Tetraethylammonium) hexakis(\m~2~-N,N'-bis(2,3-dioxybenzoyl)naphthalene-1,5-diamine)-tetra-titanium(iv) tetraethylammonium clathrate hydrate"
_symmetry_cell_setting           rhombohedral
_symmetry_space_group_name_H-M   'R -3 c'
_symmetry_Int_Tables_number      167
_space_group_name_Hall           '-R 3 2"c'
loop_
_symmetry_equiv_pos_site_id
_symmetry_equiv_pos_as_xyz
1 x,y,z
2 -y,x-y,z
3 -x+y,-x,z
4 y,x,1/2-z
5 x-y,-y,1/2-z
6 -x,-x+y,1/2-z
7 2/3+x,1/3+y,1/3+z
8 2/3-y,1/3+x-y,1/3+z
9 2/3-x+y,1/3-x,1/3+z
10 2/3+y,1/3+x,5/6-z
11 2/3+x-y,1/3-y,5/6-z
12 2/3-x,1/3-x+y,5/6-z
13 1/3+x,2/3+y,2/3+z
14 1/3-y,2/3+x-y,2/3+z
15 1/3-x+y,2/3-x,2/3+z
16 1/3+y,2/3+x,1/6-z
17 1/3+x-y,2/3-y,1/6-z
18 1/3-x,2/3-x+y,1/6-z
19 -x,-y,-z
20 y,-x+y,-z
21 x-y,x,-z
22 -y,-x,1/2+z
23 -x+y,y,1/2+z
24 x,x-y,1/2+z
25 1/3-x,2/3-y,2/3-z
26 1/3+y,2/3-x+y,2/3-z
27 1/3+x-y,2/3+x,2/3-z
28 1/3-y,2/3-x,1/6+z
29 1/3-x+y,2/3+y,1/6+z
30 1/3+x,2/3+x-y,1/6+z
31 2/3-x,1/3-y,1/3-z
32 2/3+y,1/3-x+y,1/3-z
33 2/3+x-y,1/3+x,1/3-z
34 2/3-y,1/3-x,5/6+z
35 2/3-x+y,1/3+y,5/6+z
36 2/3+x,1/3+x-y,5/6+z
_cell_length_a                   20.844(3)
_cell_length_b                   20.844(3)
_cell_length_c                   163.55(5)
_cell_angle_alpha                90
_cell_angle_beta                 90
_cell_angle_gamma                120
_cell_volume                     61538
_exptl_crystal_colour            orange
_exptl_crystal_description       'trigonal prism'
_cell_formula_units_Z            12
_exptl_crystal_recrystallization_method methanol/DMF
loop_
_atom_site_label
_atom_site_type_symbol
_atom_site_fract_x
_atom_site_fract_y
_atom_site_fract_z
N4 N 0.1597(10) 0.4025(10) 0.22338(11)
C49 C 0.216(2) 0.379(2) 0.2195(2)
H28 H 0.2018 0.3288 0.2213
H29 H 0.2666 0.4134 0.2216
C50 C 0.2181(19) 0.3816(19) 0.2105(2)
H30 H 0.2536 0.3673 0.2085
H31 H 0.2333 0.4319 0.2086
H32 H 0.1687 0.3471 0.2083
C51 C 0.0785(19) 0.3513(18) 0.2207(2)
H33 H 0.0778 0.3524 0.2146
H34 H 0.0498 0.3744 0.2226
C52 C 0.0343(19) 0.2674(18) 0.2233(2)
H35 H -0.0144 0.2431 0.2207
H36 H 0.0280 0.2641 0.2293
H37 H 0.0619 0.2429 0.2217
C53 C 0.1630(19) 0.4080(19) 0.2325(2)
H38 H 0.1905 0.3916 0.2356
C54 C 0.1195(19) 0.4415(19) 0.2366(2)
H39 H 0.1277 0.4443 0.2426
H40 H 0.0665 0.4101 0.2355
H41 H 0.1368 0.4914 0.2345
C55 C 0.182(2) 0.4792(19) 0.2203(2)
H42 H 0.1432 0.4858 0.2182
C56 C 0.2550(19) 0.5435(19) 0.2203(2)
H43 H 0.2535 0.5846 0.2176
H44 H 0.2890 0.5321 0.2174
H45 H 0.2722 0.5575 0.2259
N5 N 0.0000 0.0000 0.12167(13)
C57 C -0.0184(18) 0.0621(14) 0.12173(19)
C58 C 0.030(2) 0.1419(16) 0.1240(2)
C67 C 0.0000 0.0000 0.1315(5)
C57A C -0.0621(14) -0.0805(23) 0.12173(19)
C57B C 0.0805(23) 0.0184(18) 0.12173(19)
C58A C -0.1419(16) -0.1119(26) 0.1240(2)
C58B C 0.1119(26) -0.030(2) 0.1240(2)
Ti1 Ti 0.0000 0.0000 0.07762(2)
Ti2 Ti 0.35959(13) 0.35111(13) 0.141425(18)
O1 O 0.0890(4) 0.0275(4) 0.08465(5)
O2 O 0.0497(5) -0.0388(5) 0.07089(5)
O3 O 0.3060(7) 0.1008(8) 0.09438(8)
O4 O 0.1568(7) 0.4043(6) 0.11723(7)
O5 O 0.3648(5) 0.4422(5) 0.14490(8)
O6 O 0.2904(4) 0.3546(4) 0.13320(5)
O7 O 0.3620(4) 0.2674(4) 0.13608(5)
O8 O 0.4498(4) 0.4045(4) 0.13559(7)
O9 O 0.4187(5) 0.1137(5) 0.12520(7)
O10 O 0.1075(7) 0.1711(8) 0.16580(8)
O11 O 0.4071(5) 0.3471(5) 0.15158(6)
O12 O 0.2725(4) 0.2845(4) 0.14782(6)
N1 N 0.1939(6) 0.0925(6) 0.09607(7)
H1 H 0.1490 0.0747 0.0941
N2 N 0.1998(5) 0.3240(5) 0.12013(7)
H2 H 0.2232 0.3125 0.1238
N3 N 0.3498(6) 0.1293(5) 0.13483(6)
H3 H 0.3399 0.1620 0.1370
C1 C 0.1404(7) 0.0155(7) 0.08112(8)
C2 C 0.1168(7) -0.0228(7) 0.07367(8)
C3 C 0.1651(8) -0.0384(9) 0.06913(10)
H4 H 0.1498 -0.0639 0.0641
C4 C 0.2361(8) -0.0155(8) 0.07223(9)
H5 H 0.2684 -0.0272 0.0693
C5 C 0.2599(8) 0.0240(8) 0.07954(8)
H6 H 0.3091 0.0417 0.0814
C6 C 0.2114(6) 0.0378(7) 0.08416(7)
C7 C 0.4244(7) 0.2850(6) 0.13184(8)
C8 C 0.4713(7) 0.3621(7) 0.13136(9)
C9 C 0.5392(8) 0.3903(8) 0.12711(9)
H7 H 0.5733 0.4421 0.1271
C10 C 0.5563(8) 0.3417(7) 0.12296(10)
H8 H 0.5996 0.3615 0.1197
C11 C 0.5108(7) 0.2644(7) 0.12357(9)
H9 H 0.5240 0.2320 0.1209
C12 C 0.4445(6) 0.2362(6) 0.12822(8)
C13 C 0.2310(8) 0.2334(8) 0.16156(9)
C14 C 0.2547(11) 0.2250(12) 0.16948(11)
H10 H 0.2195 0.1990 0.1737
C15 C 0.3314(10) 0.2559(11) 0.17099(12)
H11 H 0.3472 0.2483 0.1762
C16 C 0.3839(10) 0.2967(10) 0.16517(11)
H12 H 0.4350 0.3186 0.1665
C17 C 0.3622(9) 0.3062(9) 0.15725(10)
C18 C 0.2855(8) 0.2748(8) 0.15577(9)
C19 C 0.2376(7) 0.4305(6) 0.12883(7)
C20 C 0.2324(7) 0.4949(7) 0.13054(8)
H13 H 0.2013 0.5066 0.1274
C21 C 0.2743(9) 0.5399(9) 0.13699(10)
H14 H 0.2722 0.5837 0.1380
C22 C 0.3189(9) 0.5252(8) 0.14202(10)
H15 H 0.3464 0.5575 0.1464
C23 C 0.3215(8) 0.4598(7) 0.14040(8)
C24 C 0.2827(6) 0.4148(7) 0.13379(7)
C25 C 0.2395(11) 0.0770(9) 0.09189(10)
C26 C 0.2102(6) 0.1354(7) 0.10358(8)
C27 C 0.2511(7) 0.1244(7) 0.10969(7)
H16 H 0.2662 0.0886 0.1090
C28 C 0.2690(7) 0.1671(7) 0.11681(8)
H17 H 0.2991 0.1621 0.1208
C29 C 0.2434(6) 0.2174(7) 0.11814(7)
H18 H 0.2553 0.2451 0.1231
C30 C 0.2003(6) 0.2261(6) 0.11212(7)
C31 C 0.1812(6) 0.1823(6) 0.10501(7)
C32 C 0.1386(9) 0.1917(9) 0.09884(9)
H19 H 0.1277 0.1649 0.0939
C33 C 0.1133(9) 0.2414(8) 0.10029(9)
H20 H 0.0839 0.2470 0.0962
C34 C 0.1292(8) 0.2833(9) 0.10746(9)
H21 H 0.1107 0.3162 0.1083
C35 C 0.1732(6) 0.2750(7) 0.11336(7)
C36 C 0.1958(8) 0.3860(9) 0.12201(9)
C37 C 0.4053(8) 0.1573(8) 0.12946(9)
C38 C 0.3028(7) 0.0538(7) 0.13770(8)
C39 C 0.3282(8) 0.0029(7) 0.13656(9)
H22 H 0.3738 0.0170 0.1339
C40 C 0.2833(8) -0.0693(8) 0.13958(10)
H23 H 0.2970 -0.1057 0.1386
C41 C 0.2197(8) -0.0887(8) 0.14400(10)
H24 H 0.1922 -0.1370 0.1463
C42 C 0.1954(6) -0.0373(6) 0.14520(8)
C43 C 0.2384(6) 0.0352(5) 0.14211(7)
C44 C 0.2178(7) 0.0890(7) 0.14376(8)
H25 H 0.2469 0.1384 0.1418
C45 C 0.1540(7) 0.0679(7) 0.14830(9)
H26 H 0.1382 0.1030 0.1492
C46 C 0.1119(9) -0.0039(7) 0.15155(10)
H27 H 0.0691 -0.0166 0.1547
C47 C 0.1334(7) -0.0570(7) 0.15010(8)
C48 C 0.1534(10) 0.2054(9) 0.16020(13)
N7 N 0.0853(6) -0.1316(6) 0.15306(7)
H46 H 0.0772 -0.1673 0.1496
Ti2B Ti -0.00848(18) -0.35959(13) 0.141425(18)
Ti2A Ti -0.35111(13) 0.00848(18) 0.141425(18)
O1A O -0.0275(4) 0.0615(6) 0.08465(5)
O1B O -0.0615(6) -0.0890(4) 0.08465(5)
O2A O 0.0388(5) 0.0885(7) 0.07089(5)
O2B O -0.0885(7) -0.0497(5) 0.07089(5)
O3B O -0.2052(11) -0.3060(7) 0.09438(8)
O3A O -0.1008(8) 0.2052(11) 0.09438(8)
O4B O 0.2475(9) -0.1568(7) 0.11723(7)
O4A O -0.4043(6) -0.2475(9) 0.11723(7)
O5B O 0.0774(7) -0.3648(5) 0.14490(8)
O5A O -0.4422(5) -0.0774(7) 0.14490(8)
O6B O 0.0642(6) -0.2904(4) 0.13320(5)
O6A O -0.3546(4) -0.0642(6) 0.13320(5)
O7B O -0.0946(6) -0.3620(4) 0.13608(5)
O7A O -0.2674(4) 0.0946(6) 0.13608(5)
O8B O -0.0453(6) -0.4498(4) 0.13559(7)
O8A O -0.4045(4) 0.0453(6) 0.13559(7)
O9A O -0.1137(5) 0.3050(7) 0.12520(7)
O9B O -0.3050(7) -0.4187(5) 0.12520(7)
O10B O 0.0636(11) -0.1075(7) 0.16580(8)
O10A O -0.1711(8) -0.0636(11) 0.16580(8)
O11B O -0.0600(7) -0.4071(5) 0.15158(6)
O11A O -0.3471(5) 0.0600(7) 0.15158(6)
O12B O 0.0120(6) -0.2725(4) 0.14782(6)
O12A O -0.2845(4) -0.0120(6) 0.14782(6)
N1B N -0.1014(8) -0.1939(6) 0.09607(7)
N1A N -0.0925(6) 0.1014(8) 0.09607(7)
H1B H -0.0743 -0.1490 0.0941
H1A H -0.0747 0.0743 0.0941
N2B N 0.1242(7) -0.1998(5) 0.12013(7)
N2A N -0.3240(5) -0.1242(7) 0.12013(7)
H2B H 0.0893 -0.2232 0.1238
H2A H -0.3125 -0.0893 0.1238
N3A N -0.1293(5) 0.2205(8) 0.13483(6)
N3B N -0.2205(8) -0.3498(6) 0.13483(6)
H3A H -0.1620 0.1779 0.1370
H3B H -0.1779 -0.3399 0.1370
C1A C -0.0155(7) 0.1249(10) 0.08112(8)
C1B C -0.1249(10) -0.1404(7) 0.08112(8)
C2A C 0.0228(7) 0.1396(10) 0.07367(8)
C2B C -0.1396(10) -0.1168(7) 0.07367(8)
C3B C -0.2035(12) -0.1651(8) 0.06913(10)
C3A C 0.0384(9) 0.2035(12) 0.06913(10)
H4B H -0.2137 -0.1498 0.0641
H4A H 0.0639 0.2137 0.0641
C4B C -0.2516(11) -0.2361(8) 0.07223(9)
C4A C 0.0155(8) 0.2516(11) 0.07223(9)
H5B H -0.2956 -0.2684 0.0693
H5A H 0.0272 0.2956 0.0693
C5B C -0.2359(11) -0.2599(8) 0.07954(8)
C5A C -0.0240(8) 0.2359(11) 0.07954(8)
H6B H -0.2674 -0.3091 0.0814
H6A H -0.0417 0.2674 0.0814
C6B C -0.1736(9) -0.2114(6) 0.08416(7)
C6A C -0.0378(7) 0.1736(9) 0.08416(7)
C7B C -0.1394(9) -0.4244(7) 0.13184(8)
C7A C -0.2850(6) 0.1394(9) 0.13184(8)
C8B C -0.1092(10) -0.4713(7) 0.13136(9)
C8A C -0.3621(7) 0.1092(10) 0.13136(9)
C9A C -0.3903(8) 0.1489(11) 0.12711(9)
C9B C -0.1489(11) -0.5392(8) 0.12711(9)
H7A H -0.4421 0.1312 0.1271
H7B H -0.1312 -0.5733 0.1271
C10A C -0.3417(7) 0.2146(11) 0.12296(10)
C10B C -0.2146(11) -0.5563(8) 0.12296(10)
H8A H -0.3615 0.2381 0.1197
H8B H -0.2381 -0.5996 0.1197
C11A C -0.2644(7) 0.2464(10) 0.12357(9)
C11B C -0.2464(10) -0.5108(7) 0.12357(9)
H9A H -0.2320 0.2920 0.1209
H9B H -0.2920 -0.5240 0.1209
C12A C -0.2362(6) 0.2083(8) 0.12822(8)
C12B C -0.2083(8) -0.4445(6) 0.12822(8)
C13B C 0.0024(11) -0.2310(8) 0.16156(9)
C13A C -0.2334(8) -0.0024(11) 0.16156(9)
C14B C -0.0297(16) -0.2547(11) 0.16948(11)
C14A C -0.2250(12) 0.0297(16) 0.16948(11)
H10A H -0.1990 0.0205 0.1737
H10B H -0.0205 -0.2195 0.1737
C15B C -0.0755(15) -0.3314(10) 0.17099(12)
C15A C -0.2559(11) 0.0755(15) 0.17099(12)
H11A H -0.2483 0.0989 0.1762
H11B H -0.0989 -0.3472 0.1762
C16B C -0.0872(14) -0.3839(10) 0.16517(11)
C16A C -0.2967(10) 0.0872(14) 0.16517(11)
H12A H -0.3186 0.1164 0.1665
H12B H -0.1164 -0.4350 0.1665
C17B C -0.0560(13) -0.3622(9) 0.15725(10)
C17A C -0.3062(9) 0.0560(13) 0.15725(10)
C18B C -0.0107(11) -0.2855(8) 0.15577(9)
C18A C -0.2748(8) 0.0107(11) 0.15577(9)
C19B C 0.1929(9) -0.2376(7) 0.12883(7)
C19A C -0.4305(6) -0.1929(9) 0.12883(7)
C20B C 0.2625(10) -0.2324(7) 0.13054(8)
C20A C -0.4949(7) -0.2625(10) 0.13054(8)
H13B H 0.3053 -0.2013 0.1274
H13A H -0.5066 -0.3053 0.1274
C21B C 0.2656(13) -0.2743(9) 0.13699(10)
C21A C -0.5399(9) -0.2656(13) 0.13699(10)
H14B H 0.3115 -0.2722 0.1380
H14A H -0.5837 -0.3115 0.1380
C22B C 0.2063(12) -0.3189(9) 0.14202(10)
C22A C -0.5252(8) -0.2063(12) 0.14202(10)
H15B H 0.2111 -0.3464 0.1464
H15A H -0.5575 -0.2111 0.1464
C23B C 0.1383(11) -0.3215(8) 0.14040(8)
C23A C -0.4598(7) -0.1383(11) 0.14040(8)
C24B C 0.1321(9) -0.2827(6) 0.13379(7)
C24A C -0.4148(7) -0.1321(9) 0.13379(7)
C25B C -0.1625(14) -0.2395(11) 0.09189(10)
C25A C -0.0770(9) 0.1625(14) 0.09189(10)
C26B C -0.0748(9) -0.2102(6) 0.10358(8)
C26A C -0.1354(7) 0.0748(9) 0.10358(8)
C27B C -0.1267(10) -0.2511(7) 0.10969(7)
C27A C -0.1244(7) 0.1267(10) 0.10969(7)
H16B H -0.1776 -0.2662 0.1090
H16A H -0.0886 0.1776 0.1090
C28B C -0.1019(10) -0.2690(7) 0.11681(8)
C28A C -0.1671(7) 0.1019(10) 0.11681(8)
H17B H -0.1370 -0.2991 0.1208
H17A H -0.1621 0.1370 0.1208
C29B C -0.0260(9) -0.2434(6) 0.11814(7)
C29A C -0.2174(7) 0.0260(9) 0.11814(7)
H18B H -0.0102 -0.2553 0.1231
H18A H -0.2451 0.0102 0.1231
C30B C 0.0258(8) -0.2003(6) 0.11212(7)
C30A C -0.2261(6) -0.0258(8) 0.11212(7)
C31B C 0.0011(8) -0.1812(6) 0.10501(7)
C31A C -0.1823(6) -0.0011(8) 0.10501(7)
C32B C 0.0531(13) -0.1386(9) 0.09884(9)
C32A C -0.1917(9) -0.0531(13) 0.09884(9)
H19B H 0.0372 -0.1277 0.0939
H19A H -0.1649 -0.0372 0.0939
C33B C 0.1281(12) -0.1133(9) 0.10029(9)
C33A C -0.2414(8) -0.1281(12) 0.10029(9)
H20B H 0.1631 -0.0839 0.0962
H20A H -0.2470 -0.1631 0.0962
C34B C 0.1541(12) -0.1292(8) 0.10746(9)
C34A C -0.2833(9) -0.1541(12) 0.10746(9)
H21B H 0.2055 -0.1107 0.1083
H21A H -0.3162 -0.2055 0.1083
C35B C 0.1018(9) -0.1732(6) 0.11336(7)
C35A C -0.2750(7) -0.1018(9) 0.11336(7)
C36B C 0.1902(12) -0.1958(8) 0.12201(9)
C36A C -0.3860(9) -0.1902(12) 0.12201(9)
C37A C -0.1573(8) 0.2480(11) 0.12946(9)
C37B C -0.2480(11) -0.4053(8) 0.12946(9)
C38A C -0.0538(7) 0.2490(10) 0.13770(8)
C38B C -0.2490(10) -0.3028(7) 0.13770(8)
C39A C -0.0029(7) 0.3253(11) 0.13656(9)
C39B C -0.3253(11) -0.3282(8) 0.13656(9)
H22B H -0.3568 -0.3738 0.1339
H22A H -0.0170 0.3568 0.1339
C40A C 0.0693(8) 0.3526(11) 0.13958(10)
C40B C -0.3526(11) -0.2833(8) 0.13958(10)
H23B H -0.4027 -0.2970 0.1386
H23A H 0.1057 0.4027 0.1386
C41A C 0.0887(8) 0.3084(11) 0.14400(10)
C41B C -0.3084(11) -0.2197(8) 0.14400(10)
H24B H -0.3292 -0.1922 0.1463
H24A H 0.1370 0.3292 0.1463
C42A C 0.0373(6) 0.2327(8) 0.14520(8)
C42B C -0.2327(8) -0.1954(6) 0.14520(8)
C43B C -0.2032(8) -0.2384(6) 0.14211(7)
C43A C -0.0352(5) 0.2032(8) 0.14211(7)
C44B C -0.1288(10) -0.2178(7) 0.14376(8)
C44A C -0.0890(7) 0.1288(10) 0.14376(8)
H25B H -0.1085 -0.2469 0.1418
H25A H -0.1384 0.1085 0.1418
C45B C -0.0861(10) -0.1540(7) 0.14830(9)
C45A C -0.0679(7) 0.0861(10) 0.14830(9)
H26B H -0.0352 -0.1382 0.1492
H26A H -0.1030 0.0352 0.1492
C46B C -0.1158(11) -0.1119(9) 0.15155(10)
C46A C 0.0039(7) 0.1158(11) 0.15155(10)
H27B H -0.0857 -0.0691 0.1547
H27A H 0.0166 0.0857 0.1547
C47A C 0.0570(7) 0.1904(10) 0.15010(8)
C47B C -0.1904(10) -0.1334(7) 0.15010(8)
C48B C 0.0520(13) -0.1534(10) 0.16020(13)
C48A C -0.2054(9) -0.0520(13) 0.16020(13)
N7A N 0.1316(6) 0.2169(8) 0.15306(7)
N7B N -0.2169(8) -0.0853(6) 0.15306(7)
H46B H -0.2445 -0.0772 0.1496
H46A H 0.1673 0.2445 0.1496
loop_
_geom_bond_atom_site_label_1
_geom_bond_atom_site_label_2
_geom_bond_site_symmetry_1
_geom_bond_site_symmetry_2
Ti1 O1 1_555 1_555
Ti2 O5 1_555 1_555
O1 C1 1_555 1_555
O2 Ti1 1_555 1_555
O3 C25 1_555 1_555
O4 C36 1_555 1_555
O5 C23 1_555 1_555
O6 Ti2 1_555 1_555
O7 Ti2 1_555 1_555
O8 Ti2 1_555 1_555
O9 C37 1_555 1_555
O10 C48 1_555 1_555
O11 Ti2 1_555 1_555
O12 Ti2 1_555 1_555
N1 H1 1_555 1_555
N2 H2 1_555 1_555
N3 H3 1_555 1_555
C1 C2 1_555 1_555
C2 O2 1_555 1_555
C3 C2 1_555 1_555
H4 C3 1_555 1_555
C4 C3 1_555 1_555
H5 C4 1_555 1_555
C5 C4 1_555 1_555
H6 C5 1_555 1_555
C6 C1 1_555 1_555
C7 O7 1_555 1_555
C8 O8 1_555 1_555
C9 C8 1_555 1_555
H7 C9 1_555 1_555
C10 C9 1_555 1_555
H8 C10 1_555 1_555
C11 C10 1_555 1_555
H9 C11 1_555 1_555
C12 C7 1_555 1_555
C13 C14 1_555 1_555
C14 H10 1_555 1_555
C15 C14 1_555 1_555
H11 C15 1_555 1_555
C16 C15 1_555 1_555
H12 C16 1_555 1_555
C17 O11 1_555 1_555
C18 O12 1_555 1_555
C19 C20 1_555 1_555
C20 H13 1_555 1_555
C21 C20 1_555 1_555
H14 C21 1_555 1_555
C22 C21 1_555 1_555
H15 C22 1_555 1_555
C23 C22 1_555 1_555
C24 O6 1_555 1_555
C25 N1 1_555 1_555
C26 N1 1_555 1_555
C27 C26 1_555 1_555
H16 C27 1_555 1_555
C28 C27 1_555 1_555
H17 C28 1_555 1_555
C29 C28 1_555 1_555
H18 C29 1_555 1_555
C30 C29 1_555 1_555
C31 C26 1_555 1_555
C32 C31 1_555 1_555
H19 C32 1_555 1_555
C33 C32 1_555 1_555
H20 C33 1_555 1_555
C34 C33 1_555 1_555
H21 C34 1_555 1_555
C35 N2 1_555 1_555
C36 N2 1_555 1_555
C37 N3 1_555 1_555
C38 N3 1_555 1_555
C39 C38 1_555 1_555
H22 C39 1_555 1_555
C40 C39 1_555 1_555
H23 C40 1_555 1_555
C41 C40 1_555 1_555
H24 C41 1_555 1_555
C42 C41 1_555 1_555
C43 C38 1_555 1_555
C44 C43 1_555 1_555
H25 C44 1_555 1_555
C45 C44 1_555 1_555
H26 C45 1_555 1_555
C46 C45 1_555 1_555
H27 C46 1_555 1_555
C47 C42 1_555 1_555
C48 C13 1_555 1_555
N4 C49 1_555 1_555
C49 H28 1_555 1_555
H29 C49 1_555 1_555
C50 C49 1_555 1_555
H30 C50 1_555 1_555
H31 C50 1_555 1_555
H32 C50 1_555 1_555
C51 N4 1_555 1_555
H33 C51 1_555 1_555
H34 C51 1_555 1_555
C52 C51 1_555 1_555
H35 C52 1_555 1_555
H36 C52 1_555 1_555
H37 C52 1_555 1_555
C53 N4 1_555 1_555
H38 C53 1_555 1_555
C54 C53 1_555 1_555
H39 C54 1_555 1_555
H40 C54 1_555 1_555
H41 C54 1_555 1_555
C55 N4 1_555 1_555
H42 C55 1_555 1_555
C56 C55 1_555 1_555
H43 C56 1_555 1_555
H44 C56 1_555 1_555
H45 C56 1_555 1_555
N5 C57 1_555 1_555
C57 C58 1_555 1_555
N7 C47 1_555 1_555
H46 N7 1_555 1_555
C67 N5 1_555 1_555
Ti2B O5B 1_555 1_555
Ti2A O5A 1_555 1_555
O1A Ti1 1_555 1_555
O1B Ti1 1_555 1_555
O2A Ti1 1_555 1_555
O2B Ti1 1_555 1_555
O3B C25B 1_555 1_555
O3A C25A 1_555 1_555
O4B C36B 1_555 1_555
O4A C36A 1_555 1_555
O5B C23B 1_555 1_555
O5A C23A 1_555 1_555
O6B Ti2B 1_555 1_555
O6A Ti2A 1_555 1_555
O7B Ti2B 1_555 1_555
O7A Ti2A 1_555 1_555
O8B Ti2B 1_555 1_555
O8A Ti2A 1_555 1_555
O9A C37A 1_555 1_555
O9B C37B 1_555 1_555
O10B C48B 1_555 1_555
O10A C48A 1_555 1_555
O11B Ti2B 1_555 1_555
O11A Ti2A 1_555 1_555
O12B Ti2B 1_555 1_555
O12A Ti2A 1_555 1_555
N1B H1B 1_555 1_555
N1A H1A 1_555 1_555
N2B H2B 1_555 1_555
N2A H2A 1_555 1_555
N3A H3A 1_555 1_555
N3B H3B 1_555 1_555
C1A O1A 1_555 1_555
C1B O1B 1_555 1_555
C2A O2A 1_555 1_555
C2B O2B 1_555 1_555
C3B C2B 1_555 1_555
C3A C2A 1_555 1_555
H4B C3B 1_555 1_555
H4A C3A 1_555 1_555
C4B C3B 1_555 1_555
C4A C3A 1_555 1_555
H5B C4B 1_555 1_555
H5A C4A 1_555 1_555
C5B C4B 1_555 1_555
C5A C4A 1_555 1_555
H6B C5B 1_555 1_555
H6A C5A 1_555 1_555
C6B C1B 1_555 1_555
C6A C1A 1_555 1_555
C7B O7B 1_555 1_555
C7A O7A 1_555 1_555
C8B O8B 1_555 1_555
C8A O8A 1_555 1_555
C9A C8A 1_555 1_555
C9B C8B 1_555 1_555
H7A C9A 1_555 1_555
H7B C9B 1_555 1_555
C10A C9A 1_555 1_555
C10B C9B 1_555 1_555
H8A C10A 1_555 1_555
H8B C10B 1_555 1_555
C11A C10A 1_555 1_555
C11B C10B 1_555 1_555
H9A C11A 1_555 1_555
H9B C11B 1_555 1_555
C12A C7A 1_555 1_555
C12B C7B 1_555 1_555
C13B C14B 1_555 1_555
C13A C14A 1_555 1_555
C14B H10B 1_555 1_555
C14A H10A 1_555 1_555
C15B C14B 1_555 1_555
C15A C14A 1_555 1_555
H11A C15A 1_555 1_555
H11B C15B 1_555 1_555
C16B C15B 1_555 1_555
C16A C15A 1_555 1_555
H12A C16A 1_555 1_555
H12B C16B 1_555 1_555
C17B O11B 1_555 1_555
C17A O11A 1_555 1_555
C18B O12B 1_555 1_555
C18A O12A 1_555 1_555
C19B C20B 1_555 1_555
C19A C20A 1_555 1_555
C20B H13B 1_555 1_555
C20A H13A 1_555 1_555
C21B C20B 1_555 1_555
C21A C20A 1_555 1_555
H14B C21B 1_555 1_555
H14A C21A 1_555 1_555
C22B C21B 1_555 1_555
C22A C21A 1_555 1_555
H15B C22B 1_555 1_555
H15A C22A 1_555 1_555
C23B C22B 1_555 1_555
C23A C22A 1_555 1_555
C24B O6B 1_555 1_555
C24A O6A 1_555 1_555
C25B N1B 1_555 1_555
C25A N1A 1_555 1_555
C26B N1B 1_555 1_555
C26A N1A 1_555 1_555
C27B C26B 1_555 1_555
C27A C26A 1_555 1_555
H16B C27B 1_555 1_555
H16A C27A 1_555 1_555
C28B C27B 1_555 1_555
C28A C27A 1_555 1_555
H17B C28B 1_555 1_555
H17A C28A 1_555 1_555
C29B C28B 1_555 1_555
C29A C28A 1_555 1_555
H18B C29B 1_555 1_555
H18A C29A 1_555 1_555
C30B C29B 1_555 1_555
C30A C29A 1_555 1_555
C31B C26B 1_555 1_555
C31A C26A 1_555 1_555
C32B C31B 1_555 1_555
C32A C31A 1_555 1_555
H19B C32B 1_555 1_555
H19A C32A 1_555 1_555
C33B C32B 1_555 1_555
C33A C32A 1_555 1_555
H20B C33B 1_555 1_555
H20A C33A 1_555 1_555
C34B C33B 1_555 1_555
C34A C33A 1_555 1_555
H21B C34B 1_555 1_555
H21A C34A 1_555 1_555
C35B N2B 1_555 1_555
C35A N2A 1_555 1_555
C36B N2B 1_555 1_555
C36A N2A 1_555 1_555
C37A N3A 1_555 1_555
C37B N3B 1_555 1_555
C38A N3A 1_555 1_555
C38B N3B 1_555 1_555
C39A C38A 1_555 1_555
C39B C38B 1_555 1_555
H22B C39B 1_555 1_555
H22A C39A 1_555 1_555
C40A C39A 1_555 1_555
C40B C39B 1_555 1_555
H23B C40B 1_555 1_555
H23A C40A 1_555 1_555
C41A C40A 1_555 1_555
C41B C40B 1_555 1_555
H24B C41B 1_555 1_555
H24A C41A 1_555 1_555
C42A C41A 1_555 1_555
C42B C41B 1_555 1_555
C43B C38B 1_555 1_555
C43A C38A 1_555 1_555
C44B C43B 1_555 1_555
C44A C43A 1_555 1_555
H25B C44B 1_555 1_555
H25A C44A 1_555 1_555
C45B C44B 1_555 1_555
C45A C44A 1_555 1_555
H26B C45B 1_555 1_555
H26A C45A 1_555 1_555
C46B C45B 1_555 1_555
C46A C45A 1_555 1_555
H27B C46B 1_555 1_555
H27A C46A 1_555 1_555
C47A C42A 1_555 1_555
C47B C42B 1_555 1_555
C48B N7 1_555 1_555
C48A C13A 1_555 1_555
C57A N5 1_555 1_555
C57B N5 1_555 1_555
C58A C57A 1_555 1_555
C58B C57B 1_555 1_555
N7A C48 1_555 1_555
N7B C47B 1_555 1_555
H46B N7B 1_555 1_555
H46A N7A 1_555 1_555
C5 C6 1_555 1_555
C6 C25 1_555 1_555
C7 C8 1_555 1_555
C11 C12 1_555 1_555
C12 C37 1_555 1_555
C13 C18 1_555 1_555
C16 C17 1_555 1_555
C17 C18 1_555 1_555
C19 C24 1_555 1_555
C19 C36 1_555 1_555
C23 C24 1_555 1_555
C30 C31 1_555 1_555
C30 C35 1_555 1_555
C34 C35 1_555 1_555
C42 C43 1_555 1_555
C46 C47 1_555 1_555
C1A C2A 1_555 1_555
C1B C2B 1_555 1_555
C5B C6B 1_555 1_555
C5A C6A 1_555 1_555
C6B C25B 1_555 1_555
C6A C25A 1_555 1_555
C7B C8B 1_555 1_555
C7A C8A 1_555 1_555
C11A C12A 1_555 1_555
C11B C12B 1_555 1_555
C12A C37A 1_555 1_555
C12B C37B 1_555 1_555
C13B C18B 1_555 1_555
C13B C48B 1_555 1_555
C13A C18A 1_555 1_555
C16B C17B 1_555 1_555
C16A C17A 1_555 1_555
C17B C18B 1_555 1_555
C17A C18A 1_555 1_555
C19B C24B 1_555 1_555
C19B C36B 1_555 1_555
C19A C24A 1_555 1_555
C19A C36A 1_555 1_555
C23B C24B 1_555 1_555
C23A C24A 1_555 1_555
C30B C31B 1_555 1_555
C30B C35B 1_555 1_555
C30A C31A 1_555 1_555
C30A C35A 1_555 1_555
C34B C35B 1_555 1_555
C34A C35A 1_555 1_555
C42A C43A 1_555 1_555
C42B C43B 1_555 1_555
C46B C47B 1_555 1_555
C46A C47A 1_555 1_555
C47A N7A 1_555 1_555
C48A N7B 1_555 1_555

#END
