
#######################################################################
#
#                 Cambridge Crystallographic Data Centre
#                                CCDC 
#
#######################################################################
#
# If this CIF has been generated from an entry in the Cambridge 
# Structural Database, then it will include bibliographic, chemical, 
# crystal, experimental, refinement or atomic coordinate data resulting 
# from the CCDC's data processing and validation procedures.
#
#######################################################################

data_HUJNIK
_chemical_formula_moiety         
'C108 H80 N12 Pt4 4+,4(F6 P1 1-),5(C1 H3 N1 O2)'
_chemical_name_systematic        
"tetrakis((\m~2~-4,4'-Bipyridine)-(2-(6-phenylpyridin-2-yl)phenyl))-tetra-platinum tetrakis(hexafluorophosphate) nitromethane solvate"
_symmetry_cell_setting           triclinic
_symmetry_space_group_name_H-M   'P -1'
_symmetry_Int_Tables_number      2
_space_group_name_Hall           '-P 1'
loop_
_symmetry_equiv_pos_site_id
_symmetry_equiv_pos_as_xyz
1 x,y,z
2 -x,-y,-z
_cell_length_a                   13.5137(17)
_cell_length_b                   13.8563(18)
_cell_length_c                   21.010(2)
_cell_angle_alpha                97.384(7)
_cell_angle_beta                 100.261(7)
_cell_angle_gamma                116.076(7)
_cell_volume                     3380.62
_exptl_crystal_colour            yellow
_exptl_crystal_description       prism
_cell_formula_units_Z            1
_exptl_crystal_recrystallization_method 'nitromethane/diethyl ether'
loop_
_atom_site_label
_atom_site_type_symbol
_atom_site_fract_x
_atom_site_fract_y
_atom_site_fract_z
Pt1 Pt -0.084637(18) 0.976333(16) 1.216616(10)
C1 C -0.1313(5) 1.0912(5) 1.1951(3)
C2 C -0.0992(5) 1.1770(5) 1.2515(3)
C3 C -0.1156(5) 1.2677(5) 1.2456(3)
H1 H -0.0945 1.3245 1.2838
C4 C -0.1634(6) 1.2748(5) 1.1832(4)
H2 H -0.1772 1.3355 1.1788
C5 C -0.1911(7) 1.1928(6) 1.1272(4)
H3 H -0.2212 1.1993 1.0844
C6 C -0.1751(6) 1.1023(6) 1.1333(3)
H4 H -0.1944 1.0471 1.0946
C7 C -0.0480(5) 1.1620(4) 1.3162(3)
N1 N -0.0482(4) 1.0619(3) 1.3129(2)
C8 C -0.0162(4) 1.0367(4) 1.3703(3)
C9 C 0.0310(5) 1.1145(5) 1.4306(3)
H5 H 0.0572 1.0959 1.4698
C10 C 0.0401(5) 1.2173(5) 1.4341(3)
H6 H 0.0760 1.2718 1.4748
C11 C -0.0046(5) 1.2402(5) 1.3763(3)
H7 H -0.0054 1.3087 1.3780
C12 C -0.0467(5) 0.9194(4) 1.3706(3)
C13 C -0.1611(5) 0.8389(5) 1.3454(3)
H8 H -0.2163 0.8575 1.3242
C14 C -0.1938(5) 0.7286(5) 1.3519(3)
H9 H -0.2715 0.6734 1.3366
C15 C -0.1101(5) 0.7025(5) 1.3811(3)
H10 H -0.1310 0.6283 1.3837
C16 C 0.0029(5) 0.7833(5) 1.4064(3)
H11 H 0.0581 0.7643 1.4272
C17 C 0.0363(5) 0.8916(4) 1.4017(3)
H12 H 0.1139 0.9465 1.4192
N2 N -0.0159(4) 0.8660(3) 1.2350(2)
C18 C 0.0961(5) 0.9043(4) 1.2504(3)
H13 H 0.1435 0.9810 1.2551
C19 C 0.1482(5) 0.8388(5) 1.2601(3)
H14 H 0.2291 0.8700 1.2711
C20 C 0.0787(5) 0.7252(4) 1.2532(3)
C21 C -0.0408(5) 0.6852(5) 1.2337(3)
H15 H -0.0912 0.6085 1.2267
C22 C -0.0841(5) 0.7569(5) 1.2249(3)
H16 H -0.1646 0.7286 1.2113
C23 C 0.1293(5) 0.6526(4) 1.2672(3)
C24 C 0.0887(5) 0.5779(4) 1.3070(3)
H17 H 0.0254 0.5708 1.3235
C25 C 0.1402(5) 0.5153(4) 1.3221(3)
H18 H 0.1126 0.4663 1.3500
N3 N 0.2295(4) 0.5201(4) 1.2987(2)
C26 C 0.2684(5) 0.5918(5) 1.2601(3)
H19 H 0.3312 0.5971 1.2437
C27 C 0.2212(5) 0.6563(5) 1.2441(3)
H20 H 0.2511 0.7051 1.2164
Pt2 Pt 0.298615(16) 0.410962(16) 1.321979(10)
C28 C 0.3364(5) 0.2930(5) 1.3444(3)
C29 C 0.3347(5) 0.2817(4) 1.4096(3)
C30 C 0.3480(5) 0.1969(4) 1.4323(3)
H21 H 0.3451 0.1892 1.4763
C31 C 0.3657(6) 0.1233(5) 1.3898(4)
H22 H 0.3754 0.0653 1.4047
C32 C 0.3691(5) 0.1353(5) 1.3268(4)
H23 H 0.3844 0.0868 1.2989
C33 C 0.3511(5) 0.2149(5) 1.3022(4)
H24 H 0.3484 0.2177 1.2570
C34 C 0.3327(5) 0.3744(4) 1.4536(3)
N4 N 0.3399(3) 0.4591(3) 1.4235(2)
C35 C 0.3638(4) 0.5563(4) 1.4617(3)
C36 C 0.3698(5) 0.5692(5) 1.5310(3)
H25 H 0.3866 0.6382 1.5575
C37 C 0.3509(5) 0.4799(5) 1.5588(3)
H26 H 0.3496 0.4852 1.6041
C38 C 0.3336(5) 0.3821(5) 1.5198(3)
H27 H 0.3225 0.3206 1.5388
C39 C 0.3927(5) 0.6556(4) 1.4343(3)
C40 C 0.4704(5) 0.6823(5) 1.3941(3)
H28 H 0.4980 0.6330 1.3802
C41 C 0.5052(5) 0.7826(6) 1.3757(3)
H29 H 0.5589 0.8030 1.3498
C42 C 0.4635(7) 0.8522(5) 1.3943(4)
H30 H 0.4902 0.9211 1.3819
C43 C 0.3834(7) 0.8250(6) 1.4306(4)
H31 H 0.3522 0.8726 1.4411
C44 C 0.3492(5) 0.7271(5) 1.4514(4)
H32 H 0.2958 0.7085 1.4775
N5 N 0.2574(4) 0.3487(4) 1.2221(2)
C45 C 0.3384(6) 0.3802(8) 1.1880(4)
H33 H 0.4139 0.4358 1.2105
C46 C 0.3135(7) 0.3335(8) 1.1216(4)
H34 H 0.3730 0.3541 1.0997
C47 C 0.2032(5) 0.2569(5) 1.0861(3)
C48 C 0.1196(7) 0.2280(7) 1.1207(3)
H35 H 0.0422 0.1774 1.0985
C49 C 0.1522(6) 0.2754(6) 1.1897(3)
H36 H 0.0956 0.2533 1.2136
C50 C 0.1760(5) 0.2037(5) 1.0139(3)
C51 C 0.2607(6) 0.2167(6) 0.9820(3)
H37 H 0.3389 0.2618 1.0053
C52 C 0.2303(6) 0.1637(6) 0.9162(3)
H38 H 0.2893 0.1742 0.8947
N6 N -0.1230(4) 0.9014(4) 1.1189(2)
C53 C -0.0384(6) 0.9153(5) 1.0886(3)
H39 H 0.0389 0.9615 1.1133
C54 C 0.0619(6) 0.1360(5) 0.9767(3)
H40 H 0.0014 0.1259 0.9967
Pt1A Pt 0.084637(18) 0.023667(16) 0.783384(10)
C1A C 0.1313(5) -0.0912(5) 0.8049(3)
C2A C 0.0992(5) -0.1770(5) 0.7485(3)
C3A C 0.1156(5) -0.2677(5) 0.7544(3)
H1A H 0.0945 -0.3245 0.7162
C4A C 0.1634(6) -0.2748(5) 0.8168(4)
H2A H 0.1772 -0.3355 0.8212
C5A C 0.1911(7) -0.1928(6) 0.8728(4)
H3A H 0.2212 -0.1993 0.9156
C6A C 0.1751(6) -0.1023(6) 0.8667(3)
H4A H 0.1944 -0.0471 0.9054
C7A C 0.0480(5) -0.1620(4) 0.6838(3)
N1A N 0.0482(4) -0.0619(3) 0.6871(2)
C8A C 0.0162(4) -0.0367(4) 0.6297(3)
C9A C -0.0310(5) -0.1145(5) 0.5694(3)
H5A H -0.0572 -0.0959 0.5302
C10A C -0.0401(5) -0.2173(5) 0.5659(3)
H6A H -0.0760 -0.2718 0.5252
C11A C 0.0046(5) -0.2402(5) 0.6237(3)
H7A H 0.0054 -0.3087 0.6220
C12A C 0.0467(5) 0.0806(4) 0.6294(3)
C13A C 0.1611(5) 0.1611(5) 0.6546(3)
H8A H 0.2163 0.1425 0.6758
C14A C 0.1938(5) 0.2714(5) 0.6481(3)
H9A H 0.2715 0.3266 0.6634
C15A C 0.1101(5) 0.2975(5) 0.6189(3)
H10A H 0.1310 0.3717 0.6163
C16A C -0.0029(5) 0.2167(5) 0.5936(3)
H11A H -0.0581 0.2357 0.5728
C17A C -0.0363(5) 0.1084(4) 0.5983(3)
H12A H -0.1139 0.0535 0.5808
N2A N 0.0159(4) 0.1340(3) 0.7650(2)
C18A C -0.0961(5) 0.0957(4) 0.7496(3)
H13A H -0.1435 0.0190 0.7449
C19A C -0.1482(5) 0.1612(5) 0.7399(3)
H14A H -0.2291 0.1300 0.7289
C20A C -0.0787(5) 0.2748(4) 0.7468(3)
C21A C 0.0408(5) 0.3148(5) 0.7663(3)
H15A H 0.0912 0.3915 0.7733
C22A C 0.0841(5) 0.2431(5) 0.7751(3)
H16A H 0.1646 0.2714 0.7887
C23A C -0.1293(5) 0.3474(4) 0.7328(3)
C24A C -0.0887(5) 0.4221(4) 0.6930(3)
H17A H -0.0254 0.4292 0.6765
C25A C -0.1402(5) 0.4847(4) 0.6779(3)
H18A H -0.1126 0.5337 0.6500
N3A N -0.2295(4) 0.4799(4) 0.7013(2)
C26A C -0.2684(5) 0.4082(5) 0.7399(3)
H19A H -0.3312 0.4029 0.7563
C27A C -0.2212(5) 0.3437(5) 0.7559(3)
H20A H -0.2511 0.2949 0.7836
Pt2A Pt -0.298615(16) 0.589038(16) 0.678021(10)
C28A C -0.3364(5) 0.7070(5) 0.6556(3)
C29A C -0.3347(5) 0.7183(4) 0.5904(3)
C30A C -0.3480(5) 0.8031(4) 0.5677(3)
H21A H -0.3451 0.8108 0.5237
C31A C -0.3657(6) 0.8767(5) 0.6102(4)
H22A H -0.3754 0.9347 0.5953
C32A C -0.3691(5) 0.8647(5) 0.6732(4)
H23A H -0.3844 0.9132 0.7011
C33A C -0.3511(5) 0.7851(5) 0.6978(4)
H24A H -0.3484 0.7823 0.7430
C34A C -0.3327(5) 0.6256(4) 0.5464(3)
N4A N -0.3399(3) 0.5409(3) 0.5765(2)
C35A C -0.3638(4) 0.4437(4) 0.5383(3)
C36A C -0.3698(5) 0.4308(5) 0.4690(3)
H25A H -0.3866 0.3618 0.4425
C37A C -0.3509(5) 0.5201(5) 0.4412(3)
H26A H -0.3496 0.5148 0.3959
C38A C -0.3336(5) 0.6179(5) 0.4802(3)
H27A H -0.3225 0.6794 0.4612
C39A C -0.3927(5) 0.3444(4) 0.5657(3)
C40A C -0.4704(5) 0.3177(5) 0.6059(3)
H28A H -0.4980 0.3670 0.6198
C41A C -0.5052(5) 0.2174(6) 0.6243(3)
H29A H -0.5589 0.1970 0.6502
C42A C -0.4635(7) 0.1478(5) 0.6057(4)
H30A H -0.4902 0.0789 0.6181
C43A C -0.3834(7) 0.1750(6) 0.5694(4)
H31A H -0.3522 0.1274 0.5589
C44A C -0.3492(5) 0.2729(5) 0.5486(4)
H32A H -0.2958 0.2915 0.5225
N5A N -0.2574(4) 0.6513(4) 0.7779(2)
C45A C -0.3384(6) 0.6198(8) 0.8120(4)
H33A H -0.4139 0.5642 0.7895
C46A C -0.3135(7) 0.6665(8) 0.8784(4)
H34A H -0.3730 0.6459 0.9003
C47A C -0.2032(5) 0.7431(5) 0.9139(3)
C48A C -0.1196(7) 0.7720(7) 0.8793(3)
H35A H -0.0422 0.8226 0.9015
C49A C -0.1522(6) 0.7246(6) 0.8103(3)
H36A H -0.0956 0.7467 0.7864
C50A C -0.1760(5) 0.7963(5) 0.9861(3)
C51A C -0.2607(6) 0.7833(6) 1.0180(3)
H37A H -0.3389 0.7382 0.9947
C52A C -0.2303(6) 0.8363(6) 1.0838(3)
H38A H -0.2893 0.8258 1.1053
N6A N 0.1230(4) 0.0986(4) 0.8811(2)
C53A C 0.0384(6) 0.0847(5) 0.9114(3)
H39A H -0.0389 0.0385 0.8867
C54A C -0.0619(6) 0.8640(5) 1.0233(3)
H40A H -0.0014 0.8741 1.0033
P1 P 0.7118(4) 0.0093(4) 0.9008(2)
F1 F 0.7631(9) -0.0546(8) 0.8612(7)
F2 F 0.6670(12) 0.0851(13) 0.9339(9)
F3 F 0.7916(8) 0.0337(9) 0.9635(4)
F4 F 0.6176(13) -0.0908(12) 0.9179(10)
F5 F 0.8267(14) 0.1239(10) 0.8876(6)
F6 F 0.6074(15) -0.0299(19) 0.8407(10)
P2 P 0.0000 0.5000 0.5000
F7 F -0.0728(3) 0.3765(3) 0.5050(2)
F8 F -0.0582(4) 0.4628(3) 0.42142(19)
F9 F -0.0992(3) 0.5266(3) 0.5128(2)
F7A F 0.0728(3) 0.6235(3) 0.4950(2)
F8A F 0.0582(4) 0.5372(3) 0.57858(19)
F9A F 0.0992(3) 0.4734(3) 0.4872(2)
P3 P 0.32949(4) 0.53213(4) 0.92711(3)
F10 F 0.23481(4) 0.54687(5) 0.88273(3)
F11 F 0.42417(4) 0.51737(5) 0.97150(3)
F12 F 0.35888(6) 0.49234(6) 0.86417(3)
F13 F 0.41721(6) 0.65299(4) 0.93094(4)
F14 F 0.30011(6) 0.57191(6) 0.99006(3)
F15 F 0.24178(6) 0.41126(5) 0.92329(4)
N7 N 0.4995(11) 0.0691(11) 0.7772(6)
O1 O 0.5186(8) 0.0278(10) 0.7323(6)
O2 O 0.4110(10) 0.0224(13) 0.8049(8)
C55 C 0.5536(10) 0.1731(12) 0.7920(10)
H41 H 0.5858 0.1991 0.7554
H42 H 0.6155 0.1984 0.8325
H43 H 0.5017 0.2026 0.7994
N8 N 0.7294(7) 0.0877(8) 0.4060(5)
O3 O 0.7271(6) 0.0200(6) 0.3608(5)
C56 C 0.7043(11) 0.1744(9) 0.3815(7)
H44 H 0.6442 0.1792 0.3996
H45 H 0.6788 0.1542 0.3328
H46 H 0.7736 0.2462 0.3962
O4 O 0.7470(7) 0.0894(9) 0.4622(6)
N9 N 0.4502(7) 0.3252(9) 0.8121(6)
O5 O 0.4736(6) 0.3674(7) 0.7656(4)
O6 O 0.3543(8) 0.2424(9) 0.7995(5)
C57 C 0.5295(15) 0.3599(17) 0.8752(9)
H47 H 0.6068 0.3859 0.8695
H48 H 0.5105 0.2977 0.8968
H49 H 0.5258 0.4201 0.9031
N10 N 0.3528(8) 0.6118(9) 0.7420(6)
O7 O 0.3941(7) 0.5558(8) 0.7279(4)
O8 O 0.2554(11) 0.5835(10) 0.7134(8)
C58 C 0.4148(11) 0.7164(12) 0.7851(9)
H50 H 0.4934 0.7311 0.8032
H51 H 0.3793 0.7193 0.8216
H52 H 0.4154 0.7723 0.7607
N11? N 1.0326(18) 0.5557(14) 1.0053(12)
O9? O 1.041(2) 0.6401(18) 1.0629(15)
O10? O 0.985(3) 0.595(2) 0.9535(19)
C59? C 1.1552(19) 0.558(2) 1.0077(12)
H53? H 1.1743 0.5269 1.0445
H54? H 1.2147 0.6343 1.0145
H55? H 1.1500 0.5138 0.9657
loop_
_geom_bond_atom_site_label_1
_geom_bond_atom_site_label_2
_geom_bond_site_symmetry_1
_geom_bond_site_symmetry_2
Pt1 C1 1_555 1_555
C1 C2 1_555 1_555
C2 C3 1_555 1_555
C3 H1 1_555 1_555
C4 C3 1_555 1_555
H2 C4 1_555 1_555
C5 C4 1_555 1_555
H3 C5 1_555 1_555
C6 C1 1_555 1_555
H4 C6 1_555 1_555
C7 C2 1_555 1_555
N1 Pt1 1_555 1_555
C8 N1 1_555 1_555
C9 C8 1_555 1_555
H5 C9 1_555 1_555
C10 C9 1_555 1_555
H6 C10 1_555 1_555
C11 C7 1_555 1_555
H7 C11 1_555 1_555
C12 C8 1_555 1_555
C13 C12 1_555 1_555
H8 C13 1_555 1_555
C14 C13 1_555 1_555
H9 C14 1_555 1_555
C15 C14 1_555 1_555
H10 C15 1_555 1_555
C16 C15 1_555 1_555
H11 C16 1_555 1_555
C17 C12 1_555 1_555
H12 C17 1_555 1_555
N2 Pt1 1_555 1_555
C18 N2 1_555 1_555
H13 C18 1_555 1_555
C19 C18 1_555 1_555
H14 C19 1_555 1_555
C20 C19 1_555 1_555
C21 C20 1_555 1_555
H15 C21 1_555 1_555
C22 N2 1_555 1_555
H16 C22 1_555 1_555
C23 C20 1_555 1_555
C24 C23 1_555 1_555
H17 C24 1_555 1_555
C25 C24 1_555 1_555
H18 C25 1_555 1_555
N3 C25 1_555 1_555
C26 N3 1_555 1_555
H19 C26 1_555 1_555
C27 C23 1_555 1_555
H20 C27 1_555 1_555
Pt2 N3 1_555 1_555
C28 Pt2 1_555 1_555
C29 C28 1_555 1_555
C30 C29 1_555 1_555
H21 C30 1_555 1_555
C31 C30 1_555 1_555
H22 C31 1_555 1_555
C32 C31 1_555 1_555
H23 C32 1_555 1_555
C33 C28 1_555 1_555
H24 C33 1_555 1_555
C34 C29 1_555 1_555
N4 Pt2 1_555 1_555
C35 N4 1_555 1_555
C36 C35 1_555 1_555
H25 C36 1_555 1_555
C37 C36 1_555 1_555
H26 C37 1_555 1_555
C38 C34 1_555 1_555
H27 C38 1_555 1_555
C39 C35 1_555 1_555
C40 C39 1_555 1_555
H28 C40 1_555 1_555
C41 C40 1_555 1_555
H29 C41 1_555 1_555
C42 C41 1_555 1_555
H30 C42 1_555 1_555
C43 C42 1_555 1_555
H31 C43 1_555 1_555
C44 C39 1_555 1_555
H32 C44 1_555 1_555
N5 Pt2 1_555 1_555
C45 N5 1_555 1_555
H33 C45 1_555 1_555
C46 C45 1_555 1_555
H34 C46 1_555 1_555
C47 C46 1_555 1_555
C48 C47 1_555 1_555
H35 C48 1_555 1_555
C49 N5 1_555 1_555
H36 C49 1_555 1_555
C50 C47 1_555 1_555
C51 C50 1_555 1_555
H37 C51 1_555 1_555
C52 C51 1_555 1_555
H38 C52 1_555 1_555
N6 Pt1 1_555 1_555
C53 N6 1_555 1_555
H39 C53 1_555 1_555
C54 C50 1_555 1_555
H40 C54 1_555 1_555
P1 F1 1_555 1_555
F2 P1 1_555 1_555
F3 P1 1_555 1_555
F4 P1 1_555 1_555
F5 P1 1_555 1_555
F6 P1 1_555 1_555
P2 F7 1_555 1_555
F8 P2 1_555 1_555
F9 P2 1_555 1_555
P3 F10 1_555 1_555
F11 P3 1_555 1_555
F12 P3 1_555 1_555
F13 P3 1_555 1_555
F14 P3 1_555 1_555
F15 P3 1_555 1_555
N7 O1 1_555 1_555
O2 N7 1_555 1_555
C55 N7 1_555 1_555
H41 C55 1_555 1_555
H42 C55 1_555 1_555
H43 C55 1_555 1_555
N8 O3 1_555 1_555
C56 N8 1_555 1_555
H44 C56 1_555 1_555
H45 C56 1_555 1_555
H46 C56 1_555 1_555
O4 N8 1_555 1_555
N9 O5 1_555 1_555
O6 N9 1_555 1_555
C57 N9 1_555 1_555
H47 C57 1_555 1_555
H48 C57 1_555 1_555
H49 C57 1_555 1_555
N10 O7 1_555 1_555
O8 N10 1_555 1_555
C58 N10 1_555 1_555
H50 C58 1_555 1_555
H51 C58 1_555 1_555
H52 C58 1_555 1_555
Pt1A C1A 1_555 1_555
C1A C2A 1_555 1_555
C2A C3A 1_555 1_555
C3A H1A 1_555 1_555
C4A C3A 1_555 1_555
H2A C4A 1_555 1_555
C5A C4A 1_555 1_555
H3A C5A 1_555 1_555
C6A C1A 1_555 1_555
H4A C6A 1_555 1_555
C7A C2A 1_555 1_555
N1A Pt1A 1_555 1_555
C8A N1A 1_555 1_555
C9A C8A 1_555 1_555
H5A C9A 1_555 1_555
C10A C9A 1_555 1_555
H6A C10A 1_555 1_555
C11A C7A 1_555 1_555
H7A C11A 1_555 1_555
C12A C8A 1_555 1_555
C13A C12A 1_555 1_555
H8A C13A 1_555 1_555
C14A C13A 1_555 1_555
H9A C14A 1_555 1_555
C15A C14A 1_555 1_555
H10A C15A 1_555 1_555
C16A C15A 1_555 1_555
H11A C16A 1_555 1_555
C17A C12A 1_555 1_555
H12A C17A 1_555 1_555
N2A Pt1A 1_555 1_555
C18A N2A 1_555 1_555
H13A C18A 1_555 1_555
C19A C18A 1_555 1_555
H14A C19A 1_555 1_555
C20A C19A 1_555 1_555
C21A C20A 1_555 1_555
H15A C21A 1_555 1_555
C22A N2A 1_555 1_555
H16A C22A 1_555 1_555
C23A C20A 1_555 1_555
C24A C23A 1_555 1_555
H17A C24A 1_555 1_555
C25A C24A 1_555 1_555
H18A C25A 1_555 1_555
N3A C25A 1_555 1_555
C26A N3A 1_555 1_555
H19A C26A 1_555 1_555
C27A C23A 1_555 1_555
H20A C27A 1_555 1_555
Pt2A N3A 1_555 1_555
C28A Pt2A 1_555 1_555
C29A C28A 1_555 1_555
C30A C29A 1_555 1_555
H21A C30A 1_555 1_555
C31A C30A 1_555 1_555
H22A C31A 1_555 1_555
C32A C31A 1_555 1_555
H23A C32A 1_555 1_555
C33A C28A 1_555 1_555
H24A C33A 1_555 1_555
C34A C29A 1_555 1_555
N4A Pt2A 1_555 1_555
C35A N4A 1_555 1_555
C36A C35A 1_555 1_555
H25A C36A 1_555 1_555
C37A C36A 1_555 1_555
H26A C37A 1_555 1_555
C38A C34A 1_555 1_555
H27A C38A 1_555 1_555
C39A C35A 1_555 1_555
C40A C39A 1_555 1_555
H28A C40A 1_555 1_555
C41A C40A 1_555 1_555
H29A C41A 1_555 1_555
C42A C41A 1_555 1_555
H30A C42A 1_555 1_555
C43A C42A 1_555 1_555
H31A C43A 1_555 1_555
C44A C39A 1_555 1_555
H32A C44A 1_555 1_555
N5A Pt2A 1_555 1_555
C45A N5A 1_555 1_555
H33A C45A 1_555 1_555
C46A C45A 1_555 1_555
H34A C46A 1_555 1_555
C47A C46A 1_555 1_555
C48A C47A 1_555 1_555
H35A C48A 1_555 1_555
C49A N5A 1_555 1_555
H36A C49A 1_555 1_555
C50A C47A 1_555 1_555
C51A C50A 1_555 1_555
H37A C51A 1_555 1_555
C52A N6 1_555 1_555
H38A C52A 1_555 1_555
N6A C52 1_555 1_555
C53A C54 1_555 1_555
H39A C53A 1_555 1_555
C54A C53 1_555 1_555
H40A C54A 1_555 1_555
F7A P2 1_555 1_555
F8A P2 1_555 1_555
F9A P2 1_555 1_555
C5 C6 1_555 1_555
C7 N1 1_555 1_555
C10 C11 1_555 1_555
C16 C17 1_555 1_555
C21 C22 1_555 1_555
C26 C27 1_555 1_555
C32 C33 1_555 1_555
C34 N4 1_555 1_555
C37 C38 1_555 1_555
C43 C44 1_555 1_555
C48 C49 1_555 1_555
Pt1A N6A 1_555 1_555
C5A C6A 1_555 1_555
C7A N1A 1_555 1_555
C10A C11A 1_555 1_555
C16A C17A 1_555 1_555
C21A C22A 1_555 1_555
C26A C27A 1_555 1_555
C32A C33A 1_555 1_555
C34A N4A 1_555 1_555
C37A C38A 1_555 1_555
C43A C44A 1_555 1_555
C48A C49A 1_555 1_555
C50A C54A 1_555 1_555
C51A C52A 1_555 1_555
N6A C53A 1_555 1_555

#END
