
#######################################################################
#
#                 Cambridge Crystallographic Data Centre
#                                CCDC 
#
#######################################################################
#
# If this CIF has been generated from an entry in the Cambridge 
# Structural Database, then it will include bibliographic, chemical, 
# crystal, experimental, refinement or atomic coordinate data resulting 
# from the CCDC's data processing and validation procedures.
#
#######################################################################

data_HUXXAA
_chemical_formula_moiety         
'C56 H44 N12 O4 Pd2 4+,C6 H6,4(N1 O3 1-),4(H2 O1)'
_chemical_name_systematic        
"bis(\m~2~-N,N'-1,2-phenylenediisonicotinamido)-bis(2,2'-bipyridyl)-di-palladium(ii) benzene clathrate tetranitrate tetrahydrate"
_symmetry_cell_setting           monoclinic
_symmetry_space_group_name_H-M   'P 21/c'
_symmetry_Int_Tables_number      14
_space_group_name_Hall           '-P 2ybc'
loop_
_symmetry_equiv_pos_site_id
_symmetry_equiv_pos_as_xyz
1 x,y,z
2 -x,1/2+y,1/2-z
3 -x,-y,-z
4 x,1/2-y,1/2+z
_cell_length_a                   17.6614(7)
_cell_length_b                   20.6665(8)
_cell_length_c                   9.9004(4)
_cell_angle_alpha                90
_cell_angle_beta                 96.374(2)
_cell_angle_gamma                90
_cell_volume                     3591.3
_exptl_crystal_colour            colorless
_exptl_crystal_description       block
_cell_formula_units_Z            2
loop_
_atom_site_label
_atom_site_type_symbol
_atom_site_fract_x
_atom_site_fract_y
_atom_site_fract_z
C1 C 0.4026(6) 0.8777(5) 0.2574(10)
H1 H 0.3545 0.8595 0.2387
C2 C 0.4659(7) 0.8383(6) 0.2667(11)
H2 H 0.4610 0.7940 0.2515
C3 C 0.5374(7) 0.8663(7) 0.2995(12)
H3 H 0.5809 0.8406 0.3072
C4 C 0.5433(5) 0.9319(6) 0.3204(10)
H4 H 0.5909 0.9507 0.3440
C5 C 0.4776(5) 0.9706(5) 0.3063(9)
C6 C 0.4765(4) 1.0402(5) 0.3292(8)
C7 C 0.5420(5) 1.0774(6) 0.3657(11)
H5 H 0.5899 1.0582 0.3767
C8 C 0.5338(6) 1.1427(6) 0.3849(11)
H6 H 0.5766 1.1686 0.4056
C9 C 0.4630(6) 1.1695(5) 0.3736(12)
H7 H 0.4559 1.2131 0.3912
C10 C 0.4020(5) 1.1289(5) 0.3347(10)
H8 H 0.3538 1.1475 0.3206
C11 C 0.1957(5) 0.9111(5) 0.2378(9)
H9 H 0.1914 0.9249 0.3260
C12 C 0.1492(5) 0.8605(4) 0.1843(8)
H10 H 0.1155 0.8402 0.2365
C13 C 0.1545(4) 0.8414(4) 0.0528(7)
C14 C 0.2046(5) 0.8738(4) -0.0230(8)
H11 H 0.2074 0.8629 -0.1135
C15 C 0.2495(5) 0.9217(5) 0.0375(8)
H12 H 0.2839 0.9425 -0.0123
C16 C 0.1091(4) 0.7865(4) -0.0202(8)
C17 C 0.0506(4) 0.6835(4) 0.0069(8)
C18 C 0.0895(5) 0.6261(4) 0.0431(9)
H13 H 0.1306 0.6269 0.1104
C19 C 0.0680(5) 0.5689(4) -0.0186(10)
H14 H 0.0962 0.5314 0.0008
C20 C 0.0017(5) 0.5683(4) -0.1131(10)
H15 H -0.0150 0.5298 -0.1547
C21 C -0.0378(5) 0.6244(4) -0.1432(9)
H16 H -0.0813 0.6238 -0.2055
C22 C -0.0137(4) 0.6815(4) -0.0823(7)
C23 C -0.0918(4) 0.7601(4) -0.2231(8)
C24 C -0.1437(4) 0.8178(4) -0.2207(7)
C25 C -0.1527(5) 0.8589(5) -0.3330(9)
H17 H -0.1256 0.8508 -0.4065
C26 C -0.2002(5) 0.9104(5) -0.3372(9)
H18 H -0.2052 0.9370 -0.4134
C27 C -0.2314(4) 0.8855(4) -0.1212(8)
H19 H -0.2587 0.8944 -0.0483
C28 C -0.1826(4) 0.8333(4) -0.1124(8)
H20 H -0.1759 0.8087 -0.0333
N1 N 0.4092(4) 0.9421(4) 0.2749(7)
N2 N 0.4069(4) 1.0675(4) 0.3165(7)
N3 N 0.2454(4) 0.9401(3) 0.1686(7)
N4 N 0.0811(3) 0.7423(3) 0.0643(7)
N5 N -0.0599(3) 0.7392(3) -0.1021(6)
N6 N -0.2412(3) 0.9239(3) -0.2309(7)
O1 O 0.1019(4) 0.7822(3) -0.1408(6)
O2 O -0.0828(4) 0.7343(3) -0.3343(5)
Pd1 Pd 0.32165(3) 1.00617(3) 0.24996(6)
H21 H 0.093(4) 0.758(3) 0.154(3)
H22 H -0.083(3) 0.749(3) -0.023(4)
C1B C -0.4026(6) 1.1223(5) -0.2574(10)
H1B H -0.3545 1.1405 -0.2387
C2B C -0.4659(7) 1.1617(6) -0.2667(11)
H2B H -0.4610 1.2060 -0.2515
C3B C -0.5374(7) 1.1337(7) -0.2995(12)
H3B H -0.5809 1.1594 -0.3072
C4B C -0.5433(5) 1.0681(6) -0.3204(10)
H4B H -0.5909 1.0493 -0.3440
C5B C -0.4776(5) 1.0294(5) -0.3063(9)
C6B C -0.4765(4) 0.9598(5) -0.3292(8)
C7B C -0.5420(5) 0.9226(6) -0.3657(11)
H5B H -0.5899 0.9418 -0.3767
C8B C -0.5338(6) 0.8573(6) -0.3849(11)
H6B H -0.5766 0.8314 -0.4056
C9B C -0.4630(6) 0.8305(5) -0.3736(12)
H7B H -0.4559 0.7869 -0.3912
C10B C -0.4020(5) 0.8711(5) -0.3347(10)
H8B H -0.3538 0.8525 -0.3206
C11B C -0.1957(5) 1.0889(5) -0.2378(9)
H9B H -0.1914 1.0751 -0.3260
C12B C -0.1492(5) 1.1395(4) -0.1843(8)
H10B H -0.1155 1.1598 -0.2365
C13B C -0.1545(4) 1.1586(4) -0.0528(7)
C14B C -0.2046(5) 1.1262(4) 0.0230(8)
H11B H -0.2074 1.1371 0.1135
C15B C -0.2495(5) 1.0783(5) -0.0375(8)
H12B H -0.2839 1.0575 0.0123
C16B C -0.1091(4) 1.2135(4) 0.0202(8)
C17B C -0.0506(4) 1.3165(4) -0.0069(8)
C18B C -0.0895(5) 1.3739(4) -0.0431(9)
H13B H -0.1306 1.3731 -0.1104
C19B C -0.0680(5) 1.4311(4) 0.0186(10)
H14B H -0.0962 1.4686 -0.0008
C20B C -0.0017(5) 1.4317(4) 0.1131(10)
H15B H 0.0150 1.4702 0.1547
C21B C 0.0378(5) 1.3756(4) 0.1432(9)
H16B H 0.0813 1.3762 0.2055
C22B C 0.0137(4) 1.3185(4) 0.0823(7)
C23B C 0.0918(4) 1.2399(4) 0.2231(8)
C24B C 0.1437(4) 1.1822(4) 0.2207(7)
C25B C 0.1527(5) 1.1411(5) 0.3330(9)
H17B H 0.1256 1.1492 0.4065
C26B C 0.2002(5) 1.0896(5) 0.3372(9)
H18B H 0.2052 1.0630 0.4134
C27B C 0.2314(4) 1.1145(4) 0.1212(8)
H19B H 0.2587 1.1056 0.0483
C28B C 0.1826(4) 1.1667(4) 0.1124(8)
H20B H 0.1759 1.1913 0.0333
N1B N -0.4092(4) 1.0579(4) -0.2749(7)
N2B N -0.4069(4) 0.9325(4) -0.3165(7)
N3B N -0.2454(4) 1.0599(3) -0.1686(7)
N4B N -0.0811(3) 1.2577(3) -0.0643(7)
N5B N 0.0599(3) 1.2608(3) 0.1021(6)
N6B N 0.2412(3) 1.0761(3) 0.2309(7)
O1B O -0.1019(4) 1.2178(3) 0.1408(6)
O2B O 0.0828(4) 1.2657(3) 0.3343(5)
Pd1B Pd -0.32165(3) 0.99383(3) -0.24996(6)
H21B H -0.093(4) 1.242(3) -0.154(3)
H22B H 0.083(3) 1.251(3) 0.023(4)
C29 C 0.0402(14) 0.9773(10) -0.070(2)
H23 H 0.0755 0.9633 -0.1269
C30 C 0.0558(13) 1.0397(9) -0.025(2)
H24 H 0.0968 1.0639 -0.0486
C31 C 0.0042(13) 1.0619(13) 0.057(2)
H25 H 0.0051 1.1028 0.0970
C29B C -0.0402(14) 1.0227(10) 0.070(2)
H23B H -0.0755 1.0367 0.1269
C30B C -0.0558(13) 0.9603(9) 0.025(2)
H24B H -0.0968 0.9361 0.0486
C31B C -0.0042(13) 0.9381(13) -0.057(2)
H25B H -0.0051 0.8972 -0.0970
N7 N 0.2742(11) 0.8084(7) 0.5894(17)
O3 O 0.2789(13) 0.8484(9) 0.6833(18)
O4 O 0.3001(14) 0.7528(8) 0.614(2)
O5 O 0.2698(14) 0.8294(10) 0.4713(16)
N8 N 0.2631(7) 0.1889(6) 0.7144(17)
O6 O 0.2524(15) 0.1614(13) 0.603(2)
O7 O 0.3151(14) 0.2305(11) 0.731(3)
O8 O 0.2421(17) 0.1634(13) 0.816(2)
O9 O 0.3598(16) 0.7264(15) 0.394(4)
H26 H 0.330(3) 0.763(2) 0.409(7)
H27 H 0.325(3) 0.735(3) 0.316(5)
O10 O 0.3271(11) 0.2689(11) 0.455(2)
H28 H 0.291(3) 0.235(3) 0.466(6)
H29 H 0.342(3) 0.255(3) 0.546(3)
loop_
_geom_bond_atom_site_label_1
_geom_bond_atom_site_label_2
_geom_bond_site_symmetry_1
_geom_bond_site_symmetry_2
C1 H1 1_555 1_555
C2 C1 1_555 1_555
H2 C2 1_555 1_555
C3 C2 1_555 1_555
H3 C3 1_555 1_555
C4 C3 1_555 1_555
H4 C4 1_555 1_555
C5 C4 1_555 1_555
C6 C5 1_555 1_555
C7 C6 1_555 1_555
H5 C7 1_555 1_555
C8 C7 1_555 1_555
H6 C8 1_555 1_555
C9 C8 1_555 1_555
H7 C9 1_555 1_555
C10 C9 1_555 1_555
H8 C10 1_555 1_555
C11 H9 1_555 1_555
C12 C11 1_555 1_555
H10 C12 1_555 1_555
C13 C12 1_555 1_555
C14 C13 1_555 1_555
H11 C14 1_555 1_555
C15 C14 1_555 1_555
H12 C15 1_555 1_555
C16 C13 1_555 1_555
C17 C18 1_555 1_555
C18 H13 1_555 1_555
C19 C18 1_555 1_555
H14 C19 1_555 1_555
C20 C19 1_555 1_555
H15 C20 1_555 1_555
C21 C20 1_555 1_555
H16 C21 1_555 1_555
C22 C17 1_555 1_555
C23 C24 1_555 1_555
C24 C25 1_555 1_555
C25 H17 1_555 1_555
C26 C25 1_555 1_555
H18 C26 1_555 1_555
C27 H19 1_555 1_555
C28 C24 1_555 1_555
H20 C28 1_555 1_555
N1 C1 1_555 1_555
N2 C6 1_555 1_555
N3 C11 1_555 1_555
N4 C16 1_555 1_555
N5 C22 1_555 1_555
N6 C26 1_555 1_555
O1 C16 1_555 1_555
O2 C23 1_555 1_555
Pd1 N1 1_555 1_555
H21 N4 1_555 1_555
H22 N5 1_555 1_555
C29 H23 1_555 1_555
C30 C29 1_555 1_555
H24 C30 1_555 1_555
C31 C30 1_555 1_555
H25 C31 1_555 1_555
N7 O3 1_555 1_555
O4 N7 1_555 1_555
O5 N7 1_555 1_555
N8 O6 1_555 1_555
O7 N8 1_555 1_555
O8 N8 1_555 1_555
O9 H26 1_555 1_555
H27 O9 1_555 1_555
O10 H28 1_555 1_555
H29 O10 1_555 1_555
C1B H1B 1_555 1_555
C2B C1B 1_555 1_555
H2B C2B 1_555 1_555
C3B C2B 1_555 1_555
H3B C3B 1_555 1_555
C4B C3B 1_555 1_555
H4B C4B 1_555 1_555
C5B C4B 1_555 1_555
C6B C5B 1_555 1_555
C7B C6B 1_555 1_555
H5B C7B 1_555 1_555
C8B C7B 1_555 1_555
H6B C8B 1_555 1_555
C9B C8B 1_555 1_555
H7B C9B 1_555 1_555
C10B C9B 1_555 1_555
H8B C10B 1_555 1_555
C11B H9B 1_555 1_555
C12B C11B 1_555 1_555
H10B C12B 1_555 1_555
C13B C12B 1_555 1_555
C14B C13B 1_555 1_555
H11B C14B 1_555 1_555
C15B C14B 1_555 1_555
H12B C15B 1_555 1_555
C16B C13B 1_555 1_555
C17B C18B 1_555 1_555
C18B H13B 1_555 1_555
C19B C18B 1_555 1_555
H14B C19B 1_555 1_555
C20B C19B 1_555 1_555
H15B C20B 1_555 1_555
C21B C20B 1_555 1_555
H16B C21B 1_555 1_555
C22B C17B 1_555 1_555
C23B C24B 1_555 1_555
C24B C25B 1_555 1_555
C25B H17B 1_555 1_555
C26B C25B 1_555 1_555
H18B C26B 1_555 1_555
C27B H19B 1_555 1_555
C28B C24B 1_555 1_555
H20B C28B 1_555 1_555
N1B C1B 1_555 1_555
N2B C6B 1_555 1_555
N3B C11B 1_555 1_555
N4B C16B 1_555 1_555
N5B C22B 1_555 1_555
N6B Pd1 1_555 1_555
O1B C16B 1_555 1_555
O2B C23B 1_555 1_555
Pd1B N6 1_555 1_555
H21B N4B 1_555 1_555
H22B N5B 1_555 1_555
C29B C31 1_555 1_555
H23B C29B 1_555 1_555
C30B C29B 1_555 1_555
H24B C30B 1_555 1_555
C31B C29 1_555 1_555
H25B C31B 1_555 1_555
C5 N1 1_555 1_555
C10 N2 1_555 1_555
C15 N3 1_555 1_555
C17 N4 1_555 1_555
C21 C22 1_555 1_555
C23 N5 1_555 1_555
C27 C28 1_555 1_555
C27 N6 1_555 1_555
N2 Pd1 1_555 1_555
N3 Pd1 1_555 1_555
C5B N1B 1_555 1_555
C10B N2B 1_555 1_555
C15B N3B 1_555 1_555
C17B N4B 1_555 1_555
C21B C22B 1_555 1_555
C23B N5B 1_555 1_555
C26B N6B 1_555 1_555
C27B C28B 1_555 1_555
C27B N6B 1_555 1_555
N1B Pd1B 1_555 1_555
N2B Pd1B 1_555 1_555
N3B Pd1B 1_555 1_555
C30B C31B 1_555 1_555

#END
