
#######################################################################
#
#                 Cambridge Crystallographic Data Centre
#                                CCDC 
#
#######################################################################
#
# If this CIF has been generated from an entry in the Cambridge 
# Structural Database, then it will include bibliographic, chemical, 
# crystal, experimental, refinement or atomic coordinate data resulting 
# from the CCDC's data processing and validation procedures.
#
#######################################################################

data_ICENUA
_chemical_formula_moiety         'C68 H52 N4 O14 Zn4'
_chemical_name_systematic        
bis(\m~3~-Hydroxo)-bis(\m~2~-1,8-bis(2-(4-pyridyl)ethynyl)anthracene-N,N')-tetrakis(\m~2~-acetato-O,O')-diacetato-tetra-zinc(ii)
_symmetry_cell_setting           triclinic
_symmetry_space_group_name_H-M   'P -1'
_symmetry_Int_Tables_number      2
_space_group_name_Hall           '-P 1'
loop_
_symmetry_equiv_pos_site_id
_symmetry_equiv_pos_as_xyz
1 x,y,z
2 -x,-y,-z
_cell_length_a                   9.5817(3)
_cell_length_b                   12.7255(3)
_cell_length_c                   12.9526(5)
_cell_angle_alpha                95.8816(18)
_cell_angle_beta                 106.6566(13)
_cell_angle_gamma                100.0750(17)
_cell_volume                     1470.11
_exptl_crystal_colour            yellow
_exptl_crystal_description       prism
_cell_formula_units_Z            1
loop_
_atom_site_label
_atom_site_type_symbol
_atom_site_fract_x
_atom_site_fract_y
_atom_site_fract_z
Zn1 Zn 0.12953(3) 0.51165(2) 0.94184(2)
Zn2 Zn -0.03840(3) 0.27382(2) 1.00260(2)
O1 O -0.05806(19) 0.39999(13) 0.93643(14)
O2 O 0.0088(2) 0.58372(14) 0.80906(15)
O3 O 0.0706(2) 0.26741(14) 1.15434(15)
O4 O 0.3127(2) 0.63947(14) 0.95748(17)
O5 O -0.24894(19) 0.20742(13) 0.98805(15)
O6 O 0.2582(2) 0.43764(14) 1.05257(15)
O7 O 0.3123(2) 0.56357(15) 1.19998(16)
N1 N 0.1804(2) 0.41678(15) 0.81405(17)
N2 N 0.0421(2) 0.16142(15) 0.92609(17)
C1 C 0.3068(3) 0.3792(2) 0.8351(2)
C2 C 0.3399(3) 0.3132(2) 0.7578(2)
C3 C 0.2383(3) 0.28212(18) 0.6534(2)
C4 C 0.1068(3) 0.3220(2) 0.6309(2)
C5 C 0.0834(3) 0.3879(2) 0.7127(2)
C6 C 0.2659(3) 0.2116(2) 0.5710(2)
C7 C 0.2883(3) 0.15240(19) 0.5020(2)
C8 C 0.3169(3) 0.0808(2) 0.4207(2)
C9 C 0.3480(3) 0.1174(2) 0.3324(2)
C10 C 0.3773(3) 0.0459(2) 0.2528(2)
C11 C 0.3741(3) -0.0592(2) 0.2625(2)
C12 C 0.3415(3) -0.1022(2) 0.3529(2)
C13 C 0.3365(3) -0.2102(2) 0.3649(2)
C14 C 0.3055(3) -0.2510(2) 0.4533(2)
C15 C 0.3017(3) -0.3616(2) 0.4665(2)
C16 C 0.2720(3) -0.3989(2) 0.5543(2)
C17 C 0.2458(3) -0.3290(2) 0.6364(2)
C18 C 0.2465(3) -0.2222(2) 0.6267(2)
C19 C 0.2767(3) -0.17963(19) 0.5349(2)
C20 C 0.2801(3) -0.07162(19) 0.5225(2)
C21 C 0.3119(3) -0.03127(19) 0.4342(2)
C22 C 0.2130(3) -0.15088(19) 0.7052(2)
C23 C 0.1805(3) -0.08514(19) 0.7622(2)
C24 C 0.1348(3) -0.00217(18) 0.8198(2)
C25 C 0.0549(3) 0.0663(2) 0.7611(2)
C26 C 0.0108(3) 0.1456(2) 0.8170(2)
C27 C 0.1204(3) 0.09708(19) 0.9827(2)
C28 C 0.1681(3) 0.01508(19) 0.9332(2)
C29 C -0.0581(3) 0.65614(19) 0.7797(2)
C30 C -0.1297(3) 0.6550(2) 0.6600(2)
C31 C 0.3377(3) 0.73905(19) 0.9848(2)
C32 C 0.4855(4) 0.8055(3) 0.9880(3)
C33 C 0.3278(3) 0.4786(2) 1.1516(2)
C34 C 0.4360(4) 0.4159(3) 1.2130(3)
H1 H 0.374(3) 0.400(2) 0.909(2)
H2 H -0.134(3) 0.392(3) 0.887(2)
H3 H 0.428(3) 0.289(2) 0.774(2)
H4 H 0.036(3) 0.303(2) 0.564(3)
H5 H -0.005(4) 0.416(2) 0.699(3)
H6 H 0.352(3) 0.188(2) 0.321(2)
H7 H 0.407(3) 0.077(2) 0.197(3)
H8 H 0.388(4) -0.106(3) 0.212(3)
H9 H 0.354(4) -0.258(3) 0.314(3)
H10 H 0.320(3) -0.407(2) 0.408(2)
H11 H 0.266(4) -0.474(3) 0.560(3)
H12 H 0.225(3) -0.356(2) 0.697(2)
H13 H 0.261(3) -0.024(2) 0.571(3)
H14 H 0.032(3) 0.061(2) 0.683(3)
H15 H -0.040(3) 0.191(2) 0.779(2)
H16 H 0.139(4) 0.110(3) 1.057(3)
H17 H 0.214(2) -0.0294(17) 0.9661(18)
H18 H -0.237(4) 0.627(3) 0.645(3)
H19 H -0.096(4) 0.605(3) 0.615(3)
H20 H -0.115(4) 0.724(3) 0.644(3)
H21 H 0.549(4) 0.768(3) 0.976(3)
H22 H 0.523(5) 0.855(4) 1.051(4)
H23 H 0.471(5) 0.844(4) 0.931(4)
H24 H 0.384(4) 0.341(3) 1.208(3)
H25 H 0.510(4) 0.415(3) 1.180(3)
H26 H 0.479(5) 0.451(3) 1.295(4)
Zn1A Zn -0.12953(3) 0.48835(2) 1.05816(2)
O1A O 0.05806(19) 0.60001(13) 1.06357(14)
O3A O -0.0706(2) 0.73259(14) 0.84566(15)
Zn2A Zn 0.03840(3) 0.72618(2) 0.99740(2)
H2A H 0.134(3) 0.608(3) 1.113(2)
O5A O 0.24894(19) 0.79258(13) 1.01195(15)
C29A C 0.0581(3) 0.34386(19) 1.2203(2)
O2A O -0.0088(2) 0.41628(14) 1.19094(15)
O4A O -0.3127(2) 0.36053(14) 1.04252(17)
C31A C -0.3377(3) 0.26095(19) 1.0152(2)
C32A C -0.4855(4) 0.1945(3) 1.0120(3)
H21A H -0.549(4) 0.232(3) 1.024(3)
H22A H -0.523(5) 0.145(4) 0.949(4)
H23A H -0.471(5) 0.156(4) 1.069(4)
O6A O -0.2582(2) 0.56236(14) 0.94743(15)
C33A C -0.3278(3) 0.5214(2) 0.8484(2)
O7A O -0.3123(2) 0.43643(15) 0.80002(16)
C34A C -0.4360(4) 0.5841(3) 0.7870(3)
H24A H -0.384(4) 0.659(3) 0.792(3)
H25A H -0.510(4) 0.585(3) 0.820(3)
H26A H -0.479(5) 0.549(3) 0.705(4)
N1A N -0.1804(2) 0.58322(15) 1.18595(17)
C1A C -0.3068(3) 0.6208(2) 1.1649(2)
C2A C -0.3399(3) 0.6868(2) 1.2422(2)
C3A C -0.2383(3) 0.71788(18) 1.3466(2)
C4A C -0.1068(3) 0.6780(2) 1.3691(2)
C5A C -0.0834(3) 0.6121(2) 1.2873(2)
H5A H 0.005(4) 0.584(2) 1.301(3)
H4A H -0.036(3) 0.697(2) 1.436(3)
C6A C -0.2659(3) 0.7884(2) 1.4290(2)
C7A C -0.2883(3) 0.84760(19) 1.4980(2)
C8A C -0.3169(3) 0.9192(2) 1.5793(2)
C9A C -0.3480(3) 0.8826(2) 1.6676(2)
C10A C -0.3773(3) 0.9541(2) 1.7472(2)
C11A C -0.3741(3) 1.0592(2) 1.7375(2)
C12A C -0.3415(3) 1.1022(2) 1.6471(2)
C13A C -0.3365(3) 1.2102(2) 1.6351(2)
C14A C -0.3055(3) 1.2510(2) 1.5467(2)
C15A C -0.3017(3) 1.3616(2) 1.5335(2)
C16A C -0.2720(3) 1.3989(2) 1.4457(2)
C17A C -0.2458(3) 1.3290(2) 1.3636(2)
C18A C -0.2465(3) 1.2222(2) 1.3733(2)
C19A C -0.2767(3) 1.17963(19) 1.4651(2)
C20A C -0.2801(3) 1.07162(19) 1.4775(2)
C21A C -0.3119(3) 1.03127(19) 1.5658(2)
H13A H -0.261(3) 1.024(2) 1.429(3)
C22A C -0.2130(3) 1.15088(19) 1.2948(2)
C23A C -0.1805(3) 1.08514(19) 1.2378(2)
C24A C -0.1348(3) 1.00217(18) 1.1802(2)
C25A C -0.0549(3) 0.9337(2) 1.2389(2)
C26A C -0.0108(3) 0.8544(2) 1.1830(2)
N2A N -0.0421(2) 0.83858(15) 1.07391(17)
C27A C -0.1204(3) 0.90292(19) 1.0173(2)
C28A C -0.1681(3) 0.98492(19) 1.0668(2)
H17A H -0.214(2) 1.0294(17) 1.0339(18)
H16A H -0.139(4) 0.890(3) 0.943(3)
H15A H 0.040(3) 0.809(2) 1.221(2)
H14A H -0.032(3) 0.939(2) 1.317(3)
H12A H -0.225(3) 1.356(2) 1.303(2)
H11A H -0.266(4) 1.474(3) 1.440(3)
H10A H -0.320(3) 1.407(2) 1.592(2)
H9A H -0.354(4) 1.258(3) 1.686(3)
H8A H -0.388(4) 1.106(3) 1.788(3)
H7A H -0.407(3) 0.923(2) 1.803(3)
H6A H -0.352(3) 0.812(2) 1.679(2)
H3A H -0.428(3) 0.711(2) 1.226(2)
H1A H -0.374(3) 0.600(2) 1.091(2)
C30A C 0.1297(3) 0.3450(2) 1.3400(2)
H18A H 0.237(4) 0.373(3) 1.355(3)
H19A H 0.096(4) 0.395(3) 1.385(3)
H20A H 0.115(4) 0.276(3) 1.356(3)
loop_
_geom_bond_atom_site_label_1
_geom_bond_atom_site_label_2
_geom_bond_site_symmetry_1
_geom_bond_site_symmetry_2
Zn1 O1 1_555 1_555
Zn2 O1 1_555 1_555
O1 H2 1_555 1_555
O2 Zn1 1_555 1_555
O3 Zn2 1_555 1_555
O4 Zn1 1_555 1_555
O5 Zn2 1_555 1_555
O6 Zn1 1_555 1_555
O7 C33 1_555 1_555
N1 Zn1 1_555 1_555
N2 Zn2 1_555 1_555
C1 N1 1_555 1_555
C2 C1 1_555 1_555
C3 C2 1_555 1_555
C4 C3 1_555 1_555
C5 N1 1_555 1_555
C6 C3 1_555 1_555
C7 C6 1_555 1_555
C8 C7 1_555 1_555
C9 C8 1_555 1_555
C10 C9 1_555 1_555
C11 C10 1_555 1_555
C12 C11 1_555 1_555
C13 C12 1_555 1_555
C14 C13 1_555 1_555
C15 C14 1_555 1_555
C16 C15 1_555 1_555
C17 C16 1_555 1_555
C18 C17 1_555 1_555
C19 C14 1_555 1_555
C20 C19 1_555 1_555
C21 C8 1_555 1_555
C22 C18 1_555 1_555
C23 C22 1_555 1_555
C24 C23 1_555 1_555
C25 C24 1_555 1_555
C26 N2 1_555 1_555
C27 N2 1_555 1_555
C28 C24 1_555 1_555
C29 O2 1_555 1_555
C30 C29 1_555 1_555
C31 O4 1_555 1_555
C32 C31 1_555 1_555
C33 O6 1_555 1_555
C34 C33 1_555 1_555
H1 C1 1_555 1_555
H3 C2 1_555 1_555
H4 C4 1_555 1_555
H5 C5 1_555 1_555
H6 C9 1_555 1_555
H7 C10 1_555 1_555
H8 C11 1_555 1_555
H9 C13 1_555 1_555
H10 C15 1_555 1_555
H11 C16 1_555 1_555
H12 C17 1_555 1_555
H13 C20 1_555 1_555
H14 C25 1_555 1_555
H15 C26 1_555 1_555
H16 C27 1_555 1_555
H17 C28 1_555 1_555
H18 C30 1_555 1_555
H19 C30 1_555 1_555
H20 C30 1_555 1_555
H21 C32 1_555 1_555
H22 C32 1_555 1_555
H23 C32 1_555 1_555
H24 C34 1_555 1_555
H25 C34 1_555 1_555
H26 C34 1_555 1_555
Zn1A O1 1_555 1_555
O1A Zn1 1_555 1_555
O3A C29 1_555 1_555
Zn2A O1A 1_555 1_555
H2A O1A 1_555 1_555
O5A C31 1_555 1_555
C29A O3 1_555 1_555
O2A Zn1A 1_555 1_555
O4A Zn1A 1_555 1_555
C31A O5 1_555 1_555
C32A C31A 1_555 1_555
H21A C32A 1_555 1_555
H22A C32A 1_555 1_555
H23A C32A 1_555 1_555
O6A Zn1A 1_555 1_555
C33A O6A 1_555 1_555
O7A C33A 1_555 1_555
C34A C33A 1_555 1_555
H24A C34A 1_555 1_555
H25A C34A 1_555 1_555
H26A C34A 1_555 1_555
N1A Zn1A 1_555 1_555
C1A N1A 1_555 1_555
C2A C1A 1_555 1_555
C3A C2A 1_555 1_555
C4A C3A 1_555 1_555
C5A N1A 1_555 1_555
H5A C5A 1_555 1_555
H4A C4A 1_555 1_555
C6A C3A 1_555 1_555
C7A C6A 1_555 1_555
C8A C7A 1_555 1_555
C9A C8A 1_555 1_555
C10A C9A 1_555 1_555
C11A C10A 1_555 1_555
C12A C11A 1_555 1_555
C13A C12A 1_555 1_555
C14A C13A 1_555 1_555
C15A C14A 1_555 1_555
C16A C15A 1_555 1_555
C17A C16A 1_555 1_555
C18A C17A 1_555 1_555
C19A C14A 1_555 1_555
C20A C19A 1_555 1_555
C21A C8A 1_555 1_555
H13A C20A 1_555 1_555
C22A C18A 1_555 1_555
C23A C22A 1_555 1_555
C24A C23A 1_555 1_555
C25A C24A 1_555 1_555
C26A C25A 1_555 1_555
N2A Zn2A 1_555 1_555
C27A N2A 1_555 1_555
C28A C24A 1_555 1_555
H17A C28A 1_555 1_555
H16A C27A 1_555 1_555
H15A C26A 1_555 1_555
H14A C25A 1_555 1_555
H12A C17A 1_555 1_555
H11A C16A 1_555 1_555
H10A C15A 1_555 1_555
H9A C13A 1_555 1_555
H8A C11A 1_555 1_555
H7A C10A 1_555 1_555
H6A C9A 1_555 1_555
H3A C2A 1_555 1_555
H1A C1A 1_555 1_555
C30A C29A 1_555 1_555
H18A C30A 1_555 1_555
H19A C30A 1_555 1_555
H20A C30A 1_555 1_555
C4 C5 1_555 1_555
C12 C21 1_555 1_555
C18 C19 1_555 1_555
C20 C21 1_555 1_555
C25 C26 1_555 1_555
C27 C28 1_555 1_555
Zn1A O1A 1_555 1_555
O3A Zn2A 1_555 1_555
Zn2A O5A 1_555 1_555
C29A O2A 1_555 1_555
O4A C31A 1_555 1_555
C4A C5A 1_555 1_555
C12A C21A 1_555 1_555
C18A C19A 1_555 1_555
C20A C21A 1_555 1_555
C26A N2A 1_555 1_555
C27A C28A 1_555 1_555

#END
