
#######################################################################
#
#                 Cambridge Crystallographic Data Centre
#                                CCDC 
#
#######################################################################
#
# If this CIF has been generated from an entry in the Cambridge 
# Structural Database, then it will include bibliographic, chemical, 
# crystal, experimental, refinement or atomic coordinate data resulting 
# from the CCDC's data processing and validation procedures.
#
#######################################################################

data_IFOXOQ
_chemical_formula_moiety         
'C120 H92 N24 Pd6 12+,12(N1 O3 1-),C6 H4 Cl2,47(H2 O1)'
_chemical_name_systematic        
"tetrakis(\m~3~-3,5-bis(4-Pyridyl)pyridine)-hexakis(2,2'-bipyridine)-hexa-palladium dodecakis(nitrate) 1,4-dichlorobenzene clathrate hydrate"
_symmetry_cell_setting           triclinic
_symmetry_space_group_name_H-M   'P -1'
_symmetry_Int_Tables_number      2
_space_group_name_Hall           '-P 1'
loop_
_symmetry_equiv_pos_site_id
_symmetry_equiv_pos_as_xyz
1 x,y,z
2 -x,-y,-z
_cell_length_a                   18.487(4)
_cell_length_b                   22.325(5)
_cell_length_c                   23.825(6)
_cell_angle_alpha                110.435(4)
_cell_angle_beta                 93.316(5)
_cell_angle_gamma                99.761(5)
_cell_volume                     9007.69
_chemical_melting_point          '248-249 deg.C(dec.)'
_cell_formula_units_Z            2
loop_
_atom_site_label
_atom_site_type_symbol
_atom_site_fract_x
_atom_site_fract_y
_atom_site_fract_z
Pd1 Pd 0.26483(7) 0.42114(6) 0.99307(5)
Pd2 Pd -0.25202(8) 0.21492(7) 0.88649(6)
Pd3 Pd -0.25293(8) 0.27497(7) 1.31117(6)
Pd4 Pd 0.27360(8) 0.48921(8) 1.41911(6)
Pd5 Pd 0.35668(8) 0.08356(7) 1.13461(7)
Pd6 Pd -0.11958(9) 0.73650(7) 1.41260(6)
N1 N 0.3181(8) 0.1479(7) 1.2021(6)
C1 C 0.2612(9) 0.1274(10) 1.2274(8)
H1 H 0.2460 0.0821 1.2198
C2 C 0.2222(10) 0.1737(10) 1.2666(8)
H2 H 0.1804 0.1589 1.2832
C3 C 0.2468(11) 0.2392(10) 1.2791(9)
C4 C 0.3113(10) 0.2583(9) 1.2532(8)
H3 H 0.3321 0.3030 1.2622
C5 C 0.3414(11) 0.2107(9) 1.2157(9)
H4 H 0.3827 0.2239 1.1977
N2 N 0.2105(8) 0.4000(8) 1.3775(5)
C6 C 0.2422(10) 0.3505(10) 1.3499(8)
H5 H 0.2948 0.3600 1.3549
C7 C 0.2109(10) 0.2902(10) 1.3165(8)
C8 C 0.1318(10) 0.2761(10) 1.3122(8)
H6 H 0.1044 0.2340 1.2876
C9 C 0.0960(10) 0.3235(10) 1.3436(8)
C10 C 0.1350(10) 0.3872(10) 1.3754(8)
H7 H 0.1098 0.4209 1.3951
N3 N -0.1445(8) 0.2855(8) 1.3202(6)
C11 C -0.1037(10) 0.3266(10) 1.3728(8)
H8 H -0.1295 0.3471 1.4053
C12 C -0.0256(11) 0.3413(11) 1.3830(9)
H9 H -0.0008 0.3727 1.4204
C13 C 0.0151(10) 0.3101(10) 1.3387(9)
C14 C -0.0246(10) 0.2644(10) 1.2862(8)
H10 H 0.0008 0.2408 1.2549
C15 C -0.1032(10) 0.2521(9) 1.2783(8)
H11 H -0.1286 0.2190 1.2420
N4 N -0.0270(8) 0.6988(8) 1.3978(7)
C16 C 0.0142(10) 0.7046(10) 1.3566(8)
H12 H 0.0053 0.7344 1.3379
C17 C 0.0695(10) 0.6709(9) 1.3380(8)
H13 H 0.1001 0.6786 1.3095
C18 C 0.0780(11) 0.6243(10) 1.3637(7)
C19 C 0.0390(9) 0.6193(10) 1.4076(8)
H14 H 0.0471 0.5901 1.4271
C20 C -0.0131(11) 0.6568(9) 1.4240(8)
H15 H -0.0407 0.6530 1.4555
N5 N 0.2204(8) 0.5199(7) 1.3619(6)
C21 C 0.1745(10) 0.5615(8) 1.3798(7)
H16 H 0.1690 0.5778 1.4215
C22 C 0.1344(10) 0.5822(10) 1.3413(7)
C23 C 0.1486(9) 0.5621(8) 1.2811(7)
H17 H 0.1244 0.5768 1.2537
C24 C 0.1982(10) 0.5205(10) 1.2609(8)
C25 C 0.2322(9) 0.5000(9) 1.3032(7)
H18 H 0.2651 0.4709 1.2901
N6 N 0.2453(8) 0.4546(6) 1.0802(5)
C26 C 0.1800(10) 0.4733(9) 1.0930(8)
H19 H 0.1452 0.4705 1.0608
C27 C 0.1622(9) 0.4969(8) 1.1532(7)
H20 H 0.1170 0.5108 1.1623
C28 C 0.2172(10) 0.4984(10) 1.1996(8)
C29 C 0.2807(10) 0.4806(9) 1.1845(7)
H21 H 0.3171 0.4825 1.2152
C30 C 0.2949(11) 0.4596(9) 1.1250(8)
H22 H 0.3413 0.4484 1.1161
N7 N -0.2542(8) 0.2552(6) 0.9774(6)
C31 C -0.2783(9) 0.2184(9) 1.0119(8)
H23 H -0.2965 0.1726 0.9933
C32 C -0.2756(10) 0.2478(8) 1.0708(8)
H24 H -0.2932 0.2221 1.0936
C33 C -0.2486(9) 0.3143(8) 1.1016(7)
C34 C -0.2250(10) 0.3485(8) 1.0650(7)
H25 H -0.2048 0.3939 1.0827
C35 C -0.2303(9) 0.3174(8) 1.0033(7)
H26 H -0.2159 0.3424 0.9793
N8 N -0.2413(7) 0.3357(7) 1.2649(6)
C36 C -0.2451(9) 0.3093(9) 1.2037(8)
H27 H -0.2478 0.2636 1.1853
C37 C -0.2452(9) 0.3461(8) 1.1660(7)
C38 C -0.2344(10) 0.4132(9) 1.1948(7)
H28 H -0.2298 0.4407 1.1719
C39 C -0.2302(9) 0.4405(8) 1.2580(7)
C40 C -0.2313(9) 0.3992(8) 1.2914(7)
H29 H -0.2246 0.4180 1.3342
N9 N -0.1695(10) 0.6474(8) 1.3612(7)
C41 C -0.1660(10) 0.6214(9) 1.2998(8)
H30 H -0.1464 0.6506 1.2809
C42 C -0.1883(9) 0.5579(9) 1.2649(8)
H31 H -0.1846 0.5435 1.2229
C43 C -0.2171(10) 0.5130(9) 1.2914(8)
C44 C -0.2278(11) 0.5411(10) 1.3525(8)
H32 H -0.2511 0.5148 1.3729
C45 C -0.2035(11) 0.6085(10) 1.3826(8)
H33 H -0.2137 0.6265 1.4230
N10 N -0.1421(8) 0.2243(8) 0.9049(6)
C46 C -0.0929(11) 0.2716(10) 0.8938(8)
H34 H -0.1105 0.2983 0.8748
C47 C -0.0177(10) 0.2799(9) 0.9106(8)
H35 H 0.0160 0.3106 0.9005
C48 C 0.0090(10) 0.2456(9) 0.9408(8)
C49 C -0.0408(11) 0.1967(10) 0.9509(10)
H36 H -0.0234 0.1692 0.9690
C50 C -0.1136(11) 0.1892(10) 0.9346(9)
H37 H -0.1470 0.1580 0.9442
N11 N 0.2064(8) 0.3321(6) 0.9862(6)
C51 C 0.1336(10) 0.3180(8) 0.9683(7)
H38 H 0.1120 0.3501 0.9598
C52 C 0.0890(10) 0.2606(8) 0.9618(7)
C53 C 0.1260(11) 0.2182(9) 0.9815(8)
H39 H 0.0976 0.1775 0.9792
C54 C 0.1975(11) 0.2324(9) 1.0028(8)
C55 C 0.2401(10) 0.2929(8) 1.0064(8)
H40 H 0.2910 0.3056 1.0225
N12 N 0.3026(7) 0.1171(7) 1.0813(7)
C56 C 0.3428(10) 0.1565(9) 1.0537(8)
H41 H 0.3945 0.1587 1.0535
C57 C 0.3094(10) 0.1912(8) 1.0275(8)
H42 H 0.3385 0.2165 1.0089
C58 C 0.2343(10) 0.1912(8) 1.0265(9)
C59 C 0.1934(10) 0.1522(8) 1.0537(9)
H43 H 0.1419 0.1505 1.0550
C60 C 0.2300(10) 0.1161(10) 1.0786(9)
H44 H 0.2010 0.0884 1.0951
N13 N 0.3511(8) 0.5727(9) 1.4563(7)
C61 C 0.4008(11) 0.5690(12) 1.4971(8)
C62 C 0.4627(12) 0.6226(13) 1.5209(9)
H45 H 0.4981 0.6230 1.5517
C63 C 0.4721(13) 0.6717(14) 1.5013(12)
H46 H 0.5142 0.7063 1.5173
C64 C 0.4220(13) 0.6723(13) 1.4588(10)
H47 H 0.4286 0.7066 1.4435
C65 C 0.3591(13) 0.6210(11) 1.4371(9)
H48 H 0.3222 0.6217 1.4081
N14 N 0.3323(9) 0.4676(9) 1.4812(7)
C66 C 0.3856(12) 0.5099(12) 1.5128(8)
C67 C 0.4314(11) 0.5029(13) 1.5591(9)
H49 H 0.4729 0.5356 1.5820
C68 C 0.4107(13) 0.4443(14) 1.5683(10)
H50 H 0.4387 0.4368 1.5990
C69 C 0.3548(12) 0.4002(13) 1.5366(9)
H51 H 0.3415 0.3607 1.5438
C70 C 0.3137(11) 0.4115(13) 1.4909(10)
H52 H 0.2726 0.3792 1.4667
N15 N -0.0738(10) 0.8230(8) 1.4639(7)
C71 C -0.1128(13) 0.8662(10) 1.4888(9)
C72 C -0.0878(17) 0.9319(11) 1.5295(12)
H53 H -0.1206 0.9600 1.5462
C73 C -0.0111(19) 0.9515(13) 1.5427(14)
H54 H 0.0102 0.9952 1.5681
C74 C 0.0348(18) 0.9078(15) 1.5190(12)
H55 H 0.0869 0.9201 1.5300
C75 C 0.0004(14) 0.8421(11) 1.4766(11)
H56 H 0.0308 0.8125 1.4577
N16 N -0.2062(8) 0.7773(7) 1.4317(6)
C76 C -0.1901(12) 0.8401(10) 1.4697(8)
C77 C -0.2484(14) 0.8726(12) 1.4884(10)
H57 H -0.2381 0.9156 1.5179
C78 C -0.3240(14) 0.8407(13) 1.4630(11)
H58 H -0.3630 0.8637 1.4738
C79 C -0.3393(13) 0.7775(12) 1.4234(12)
H59 H -0.3879 0.7543 1.4052
C80 C -0.2756(11) 0.7500(11) 1.4121(9)
H60 H -0.2847 0.7053 1.3866
N17 N 0.2845(7) 0.3937(7) 0.9063(6)
C81 C 0.3208(9) 0.4392(9) 0.8893(8)
C82 C 0.3386(13) 0.4291(12) 0.8321(9)
H61 H 0.3658 0.4633 0.8220
C83 C 0.3157(12) 0.3687(13) 0.7913(9)
H62 H 0.3288 0.3602 0.7517
C84 C 0.2726(10) 0.3160(12) 0.8035(8)
H63 H 0.2545 0.2739 0.7734
C85 C 0.2592(10) 0.3324(9) 0.8652(8)
H64 H 0.2323 0.3000 0.8776
N18 N 0.3202(7) 0.5064(7) 0.9913(6)
C86 C 0.3417(9) 0.5028(9) 0.9376(8)
C87 C 0.3782(10) 0.5608(10) 0.9322(9)
H65 H 0.3921 0.5598 0.8941
C88 C 0.3942(11) 0.6187(10) 0.9806(10)
H66 H 0.4199 0.6579 0.9777
C89 C 0.3709(11) 0.6164(9) 1.0328(10)
H67 H 0.3809 0.6555 1.0675
C90 C 0.3345(11) 0.5616(9) 1.0380(9)
H68 H 0.3189 0.5628 1.0757
N19 N -0.2728(8) 0.2093(7) 1.3501(6)
C91 C -0.3423(10) 0.1976(8) 1.3621(7)
C92 C -0.3686(11) 0.1531(10) 1.3906(8)
H69 H -0.4170 0.1467 1.4018
C93 C -0.3127(15) 0.1193(12) 1.4001(10)
H70 H -0.3267 0.0847 1.4142
C94 C -0.2453(15) 0.1323(12) 1.3910(10)
H71 H -0.2092 0.1124 1.4036
C95 C -0.2258(12) 0.1763(9) 1.3620(8)
H72 H -0.1775 0.1823 1.3507
N20 N -0.3622(8) 0.2682(7) 1.3111(6)
C96 C -0.3959(10) 0.2330(8) 1.3413(8)
C97 C -0.4664(11) 0.2297(10) 1.3516(9)
H73 H -0.4870 0.2028 1.3724
C98 C -0.5091(11) 0.2648(10) 1.3325(9)
H74 H -0.5592 0.2642 1.3397
C99 C -0.4733(11) 0.3019(10) 1.3015(9)
H75 H -0.5007 0.3278 1.2881
C100 C -0.4035(10) 0.3035(8) 1.2895(8)
H76 H -0.3828 0.3282 1.2669
N21 N 0.3940(8) 0.0154(7) 1.0688(7)
C101 C 0.4417(10) -0.0140(8) 1.0913(9)
C102 C 0.4679(10) -0.0643(9) 1.0483(9)
H77 H 0.5017 -0.0851 1.0625
C103 C 0.4478(11) -0.0850(10) 0.9873(10)
H78 H 0.4671 -0.1190 0.9599
C104 C 0.3982(11) -0.0546(9) 0.9669(9)
H79 H 0.3826 -0.0664 0.9251
C105 C 0.3721(11) -0.0055(10) 1.0112(9)
H80 H 0.3357 0.0137 0.9981
N22 N 0.4181(8) 0.0522(7) 1.1855(7)
C106 C 0.4550(12) 0.0089(8) 1.1569(9)
C107 C 0.5071(12) -0.0126(11) 1.1857(10)
H81 H 0.5381 -0.0397 1.1637
C108 C 0.5114(13) 0.0075(12) 1.2477(11)
H82 H 0.5425 -0.0096 1.2687
C109 C 0.4724(13) 0.0509(11) 1.2790(10)
H83 H 0.4776 0.0675 1.3219
C110 C 0.4247(11) 0.0698(10) 1.2452(9)
H84 H 0.3937 0.0977 1.2662
N23 N -0.2559(10) 0.1849(9) 0.7955(7)
C111 C -0.3222(12) 0.1805(10) 0.7683(8)
C112 C -0.3343(17) 0.1652(16) 0.7035(10)
H85 H -0.3834 0.1561 0.6840
C113 C -0.279(2) 0.164(2) 0.6715(12)
H86 H -0.2864 0.1595 0.6304
C114 C -0.2059(19) 0.1691(16) 0.7008(12)
H87 H -0.1650 0.1642 0.6785
C115 C -0.1966(14) 0.1825(11) 0.7671(11)
H88 H -0.1491 0.1892 0.7883
N24 N -0.3592(9) 0.2037(7) 0.8648(7)
C116 C -0.3818(11) 0.1857(9) 0.8043(8)
C117 C -0.4592(11) 0.1735(10) 0.7840(11)
H89 H -0.4753 0.1603 0.7422
C118 C -0.5105(12) 0.1804(10) 0.8240(12)
H90 H -0.5612 0.1751 0.8100
C119 C -0.4886(12) 0.1955(12) 0.8856(12)
H91 H -0.5231 0.1976 0.9140
C120 C -0.4112(10) 0.2072(9) 0.9025(8)
H92 H -0.3946 0.2185 0.9440
Cl1 Cl -0.0248(4) 0.3840(3) 1.0493(3)
Cl2 Cl -0.0403(4) 0.4659(4) 1.3235(3)
C121 C -0.0324(11) 0.4056(11) 1.1257(10)
C122 C -0.0299(11) 0.4700(10) 1.1591(10)
H93 H -0.0268 0.5013 1.1401
C123 C -0.0320(12) 0.4896(11) 1.2224(10)
H94 H -0.0306 0.5337 1.2471
C124 C -0.0361(13) 0.4417(12) 1.2457(11)
C125 C -0.0341(17) 0.3799(14) 1.2129(13)
H95 H -0.0359 0.3484 1.2314
C126 C -0.0294(17) 0.3616(12) 1.1497(12)
H96 H -0.0242 0.3188 1.1259
N25 N 0.2593(8) 0.6591(9) 1.1757(6)
O1 O 0.3280(8) 0.6608(8) 1.1791(7)
O2 O 0.2280(9) 0.6682(8) 1.2222(6)
O3 O 0.2233(9) 0.6479(7) 1.1263(6)
N26 N 0.1425(7) 0.4861(6) 0.9349(6)
O4 O 0.0941(7) 0.4381(5) 0.9343(6)
O5 O 0.1592(7) 0.5353(6) 0.9800(5)
O6 O 0.1715(7) 0.4807(6) 0.8876(5)
N27 N 0.4122(8) 0.4448(7) 1.3238(7)
O7 O 0.3834(12) 0.4271(10) 1.2695(7)
O8 O 0.4267(8) 0.5035(7) 1.3524(7)
O9 O 0.4171(8) 0.4059(7) 1.3495(7)
N28 N -0.5551(8) -0.1787(9) 0.8371(9)
O10 O -0.5665(10) -0.1447(10) 0.8053(9)
O11 O -0.6095(8) -0.2037(9) 0.8542(7)
O12 O -0.4921(7) -0.1847(9) 0.8522(7)
N29 N 0.1573(9) 0.3143(10) 0.1840(7)
O13 O 0.1950(11) 0.3634(8) 0.2272(6)
O14 O 0.1808(11) 0.2955(10) 0.1350(7)
O15 O 0.0956(10) 0.2851(11) 0.1889(8)
N30 N 1.0133(13) 0.1960(12) 0.3938(12)
O16 O 1.0702(14) 0.1755(13) 0.3728(13)
O17 O 1.0281(12) 0.2465(10) 0.4386(10)
O18 O 0.9484(11) 0.1652(11) 0.3780(10)
N31 N 0.5836(13) 0.4413(13) 0.2356(11)
O19 O 0.5621(17) 0.4872(16) 0.2248(17)
O20 O 0.6020(10) 0.4496(10) 0.2883(9)
O21 O 0.571(2) 0.3862(15) 0.1958(12)
N32 N -0.1227(14) 0.8411(14) 1.3390(10)
O22 O -0.0781(18) 0.8026(15) 1.3250(17)
O23 O -0.1886(14) 0.8226(18) 1.3215(12)
O24 O -0.101(2) 0.8984(14) 1.3739(19)
N33 N 0.8305(15) 0.1497(12) 0.0931(11)
O25 O 0.768(2) 0.119(2) 0.096(2)
O26 O 0.864(2) 0.1286(17) 0.0502(14)
O27 O 0.8593(12) 0.2036(11) 0.1317(10)
N34 N 0.3196(14) 0.2080(12) 0.401(2)
O28 O 0.3549(14) 0.1624(11) 0.3777(13)
O29 O 0.2539(11) 0.1952(15) 0.4078(11)
O30 O 0.3514(11) 0.2652(11) 0.4199(8)
N35 N 0.8954(15) 0.5156(16) 0.4863(17)
O31 O 0.882(3) 0.465(3) 0.502(4)
O32 O 0.841(2) 0.527(4) 0.463(5)
O33 O 0.9577(14) 0.5424(12) 0.4861(12)
N36 N 0.2757(12) -0.0557(11) 1.1591(10)
O34 O 0.3160(16) -0.0617(18) 1.2012(12)
O35 O 0.2238(12) -0.0287(10) 1.1744(15)
O36 O 0.2828(9) -0.0834(7) 1.1057(8)
O37 O 0.0291(12) 0.1840(12) 0.0962(13)
O38 O 0.0906(10) 0.2296(10) 0.8022(10)
O39 O 0.1744(14) 0.2890(12) 0.4676(9)
O40 O 1.052(3) -0.113(2) 0.351(2)
O41 O 0.5017(16) 0.1742(13) 0.6325(13)
O42 O 0.3157(14) 0.1720(12) 0.7251(12)
O43 O 0.6997(15) 0.0084(14) 1.2300(9)
O44 O 0.6135(9) 0.0388(11) 0.5081(9)
O45 O 0.4295(13) 0.4188(17) 0.0334(17)
O46 O 0.5690(9) 0.1580(9) 0.5351(7)
O47 O 0.199(2) 0.0715(16) 0.3492(15)
O48 O 0.3350(10) 0.3324(8) 0.1545(7)
O49 O 0.4644(10) 0.1358(9) 0.4408(8)
O50 O 0.0710(8) 0.3544(7) 0.8044(6)
O51 O 0.7653(11) 0.0505(12) 0.5056(9)
O52 O 0.5266(12) 0.2362(8) 0.0382(9)
O53 O 0.0559(7) 0.5552(7) 1.0642(6)
O54 O 0.0769(8) 0.6287(7) 1.1841(6)
O55 O 0.3238(9) 0.6731(9) 1.3231(7)
O56 O 0.2361(15) 0.0202(10) 0.9297(11)
O57 O 0.1818(19) -0.0361(13) 0.3983(12)
O58 O 0.3319(14) 0.0429(12) 0.6855(11)
O59 O 0.2954(18) -0.0040(16) 0.3226(11)
O60 O 0.0399(18) 0.1194(15) 0.192(2)
O61 O 0.7520(12) 0.4075(11) 0.4360(9)
O62 O 0.3504(10) 0.0789(10) 0.8846(9)
O63 O 0.7025(11) 0.2472(10) 0.5692(7)
O64 O 0.4524(13) 0.3360(10) 0.0931(11)
O65 O 0.4247(12) 0.5918(11) 1.2961(9)
O66 O -0.7038(15) -0.1298(12) 0.7930(10)
O67 O 0.4272(12) 0.2555(11) 0.7121(10)
O68 O 0.7679(15) 0.3144(14) 0.4920(12)
O69 O 0.4184(13) 0.0041(11) 0.4008(8)
O70 O 0.1992(11) 0.0160(10) 0.6028(9)
O71 O 0.3227(12) 0.1999(12) 0.8842(13)
O72 O 0.8830(11) 0.2519(17) 0.4828(10)
O73 O 0.4466(11) 0.0367(10) 0.6123(9)
O74 O 0.8252(11) 0.1856(16) 0.5487(12)
O75 O 0.4004(17) 0.3792(17) 0.6697(11)
O76 O 0.193(2) 0.1618(14) 0.8246(15)
O77 O 0.184(3) -0.036(2) 1.065(2)
O78 O 0.4847(13) 0.6536(10) 1.1832(12)
O79 O 0.5752(11) 0.6801(11) 1.0875(12)
O80 O -0.0404(13) 0.1444(12) 0.7823(10)
O81 O 0.4704(13) 0.5352(12) 0.1763(16)
O82 O 0.103(5) 0.065(4) 0.888(4)
loop_
_geom_bond_atom_site_label_1
_geom_bond_atom_site_label_2
_geom_bond_site_symmetry_1
_geom_bond_site_symmetry_2
Pd1 N6 1_555 1_555
Pd2 N7 1_555 1_555
Pd3 N3 1_555 1_555
Pd4 N2 1_555 1_555
Pd5 N1 1_555 1_555
Pd6 N4 1_555 1_555
N1 C1 1_555 1_555
C1 H1 1_555 1_555
C2 C1 1_555 1_555
H2 C2 1_555 1_555
C3 C2 1_555 1_555
C4 C3 1_555 1_555
H3 C4 1_555 1_555
C5 N1 1_555 1_555
H4 C5 1_555 1_555
N2 C6 1_555 1_555
C6 H5 1_555 1_555
C7 C3 1_555 1_555
C8 C7 1_555 1_555
H6 C8 1_555 1_555
C9 C8 1_555 1_555
C10 N2 1_555 1_555
H7 C10 1_555 1_555
N3 C11 1_555 1_555
C11 H8 1_555 1_555
C12 C11 1_555 1_555
H9 C12 1_555 1_555
C13 C9 1_555 1_555
C14 C13 1_555 1_555
H10 C14 1_555 1_555
C15 N3 1_555 1_555
H11 C15 1_555 1_555
N4 C16 1_555 1_555
C16 H12 1_555 1_555
C17 C16 1_555 1_555
H13 C17 1_555 1_555
C18 C17 1_555 1_555
C19 C18 1_555 1_555
H14 C19 1_555 1_555
C20 N4 1_555 1_555
H15 C20 1_555 1_555
N5 Pd4 1_555 1_555
C21 N5 1_555 1_555
H16 C21 1_555 1_555
C22 C18 1_555 1_555
C23 C22 1_555 1_555
H17 C23 1_555 1_555
C24 C23 1_555 1_555
C25 N5 1_555 1_555
H18 C25 1_555 1_555
N6 C26 1_555 1_555
C26 H19 1_555 1_555
C27 C26 1_555 1_555
H20 C27 1_555 1_555
C28 C24 1_555 1_555
C29 C28 1_555 1_555
H21 C29 1_555 1_555
C30 N6 1_555 1_555
H22 C30 1_555 1_555
N7 C31 1_555 1_555
C31 H23 1_555 1_555
C32 C31 1_555 1_555
H24 C32 1_555 1_555
C33 C32 1_555 1_555
C34 C33 1_555 1_555
H25 C34 1_555 1_555
C35 N7 1_555 1_555
H26 C35 1_555 1_555
N8 Pd3 1_555 1_555
C36 N8 1_555 1_555
H27 C36 1_555 1_555
C37 C33 1_555 1_555
C38 C37 1_555 1_555
H28 C38 1_555 1_555
C39 C38 1_555 1_555
C40 N8 1_555 1_555
H29 C40 1_555 1_555
N9 Pd6 1_555 1_555
C41 N9 1_555 1_555
H30 C41 1_555 1_555
C42 C41 1_555 1_555
H31 C42 1_555 1_555
C43 C39 1_555 1_555
C44 C43 1_555 1_555
H32 C44 1_555 1_555
C45 N9 1_555 1_555
H33 C45 1_555 1_555
N10 Pd2 1_555 1_555
C46 N10 1_555 1_555
H34 C46 1_555 1_555
C47 C46 1_555 1_555
H35 C47 1_555 1_555
C48 C47 1_555 1_555
C49 C48 1_555 1_555
H36 C49 1_555 1_555
C50 N10 1_555 1_555
H37 C50 1_555 1_555
N11 Pd1 1_555 1_555
C51 N11 1_555 1_555
H38 C51 1_555 1_555
C52 C48 1_555 1_555
C53 C52 1_555 1_555
H39 C53 1_555 1_555
C54 C53 1_555 1_555
C55 N11 1_555 1_555
H40 C55 1_555 1_555
N12 Pd5 1_555 1_555
C56 N12 1_555 1_555
H41 C56 1_555 1_555
C57 C56 1_555 1_555
H42 C57 1_555 1_555
C58 C54 1_555 1_555
C59 C58 1_555 1_555
H43 C59 1_555 1_555
C60 N12 1_555 1_555
H44 C60 1_555 1_555
N13 Pd4 1_555 1_555
C61 N13 1_555 1_555
C62 C61 1_555 1_555
H45 C62 1_555 1_555
C63 C62 1_555 1_555
H46 C63 1_555 1_555
C64 C63 1_555 1_555
H47 C64 1_555 1_555
C65 N13 1_555 1_555
H48 C65 1_555 1_555
N14 Pd4 1_555 1_555
C66 C61 1_555 1_555
C67 C66 1_555 1_555
H49 C67 1_555 1_555
C68 C67 1_555 1_555
H50 C68 1_555 1_555
C69 C68 1_555 1_555
H51 C69 1_555 1_555
C70 N14 1_555 1_555
H52 C70 1_555 1_555
N15 Pd6 1_555 1_555
C71 N15 1_555 1_555
C72 C71 1_555 1_555
H53 C72 1_555 1_555
C73 C72 1_555 1_555
H54 C73 1_555 1_555
C74 C73 1_555 1_555
H55 C74 1_555 1_555
C75 N15 1_555 1_555
H56 C75 1_555 1_555
N16 Pd6 1_555 1_555
C76 C71 1_555 1_555
C77 C76 1_555 1_555
H57 C77 1_555 1_555
C78 C77 1_555 1_555
H58 C78 1_555 1_555
C79 C78 1_555 1_555
H59 C79 1_555 1_555
C80 N16 1_555 1_555
H60 C80 1_555 1_555
N17 Pd1 1_555 1_555
C81 N17 1_555 1_555
C82 C81 1_555 1_555
H61 C82 1_555 1_555
C83 C82 1_555 1_555
H62 C83 1_555 1_555
C84 C83 1_555 1_555
H63 C84 1_555 1_555
C85 N17 1_555 1_555
H64 C85 1_555 1_555
N18 Pd1 1_555 1_555
C86 C81 1_555 1_555
C87 C86 1_555 1_555
H65 C87 1_555 1_555
C88 C87 1_555 1_555
H66 C88 1_555 1_555
C89 C88 1_555 1_555
H67 C89 1_555 1_555
C90 N18 1_555 1_555
H68 C90 1_555 1_555
N19 Pd3 1_555 1_555
C91 N19 1_555 1_555
C92 C91 1_555 1_555
H69 C92 1_555 1_555
C93 C92 1_555 1_555
H70 C93 1_555 1_555
C94 C93 1_555 1_555
H71 C94 1_555 1_555
C95 N19 1_555 1_555
H72 C95 1_555 1_555
N20 Pd3 1_555 1_555
C96 C91 1_555 1_555
C97 C96 1_555 1_555
H73 C97 1_555 1_555
C98 C97 1_555 1_555
H74 C98 1_555 1_555
C99 C98 1_555 1_555
H75 C99 1_555 1_555
C100 N20 1_555 1_555
H76 C100 1_555 1_555
N21 Pd5 1_555 1_555
C101 N21 1_555 1_555
C102 C101 1_555 1_555
H77 C102 1_555 1_555
C103 C102 1_555 1_555
H78 C103 1_555 1_555
C104 C103 1_555 1_555
H79 C104 1_555 1_555
C105 N21 1_555 1_555
H80 C105 1_555 1_555
N22 Pd5 1_555 1_555
C106 C101 1_555 1_555
C107 C106 1_555 1_555
H81 C107 1_555 1_555
C108 C107 1_555 1_555
H82 C108 1_555 1_555
C109 C108 1_555 1_555
H83 C109 1_555 1_555
C110 N22 1_555 1_555
H84 C110 1_555 1_555
N23 Pd2 1_555 1_555
C111 N23 1_555 1_555
C112 C111 1_555 1_555
H85 C112 1_555 1_555
C113 C112 1_555 1_555
H86 C113 1_555 1_555
C114 C113 1_555 1_555
H87 C114 1_555 1_555
C115 N23 1_555 1_555
H88 C115 1_555 1_555
N24 Pd2 1_555 1_555
C116 C111 1_555 1_555
C117 C116 1_555 1_555
H89 C117 1_555 1_555
C118 C117 1_555 1_555
H90 C118 1_555 1_555
C119 C118 1_555 1_555
H91 C119 1_555 1_555
C120 N24 1_555 1_555
H92 C120 1_555 1_555
Cl1 C121 1_555 1_555
Cl2 C124 1_555 1_555
C121 C122 1_555 1_555
C122 H93 1_555 1_555
C123 C122 1_555 1_555
H94 C123 1_555 1_555
C124 C123 1_555 1_555
C125 C124 1_555 1_555
H95 C125 1_555 1_555
C126 C121 1_555 1_555
H96 C126 1_555 1_555
N25 O1 1_555 1_555
O2 N25 1_555 1_555
O3 N25 1_555 1_555
N26 O4 1_555 1_555
O5 N26 1_555 1_555
O6 N26 1_555 1_555
N27 O7 1_555 1_555
O8 N27 1_555 1_555
O9 N27 1_555 1_555
N28 O10 1_555 1_555
O11 N28 1_555 1_555
O12 N28 1_555 1_555
N29 O13 1_555 1_555
O14 N29 1_555 1_555
O15 N29 1_555 1_555
N30 O16 1_555 1_555
O17 N30 1_555 1_555
O18 N30 1_555 1_555
N31 O19 1_555 1_555
O20 N31 1_555 1_555
O21 N31 1_555 1_555
N32 O22 1_555 1_555
O23 N32 1_555 1_555
O24 N32 1_555 1_555
N33 O25 1_555 1_555
O26 N33 1_555 1_555
O27 N33 1_555 1_555
N34 O28 1_555 1_555
O29 N34 1_555 1_555
O30 N34 1_555 1_555
N35 O31 1_555 1_555
O32 N35 1_555 1_555
O33 N35 1_555 1_555
N36 O34 1_555 1_555
O35 N36 1_555 1_555
O36 N36 1_555 1_555
C4 C5 1_555 1_555
C6 C7 1_555 1_555
C9 C10 1_555 1_555
C12 C13 1_555 1_555
C14 C15 1_555 1_555
C19 C20 1_555 1_555
C21 C22 1_555 1_555
C24 C25 1_555 1_555
C27 C28 1_555 1_555
C29 C30 1_555 1_555
C34 C35 1_555 1_555
C36 C37 1_555 1_555
C39 C40 1_555 1_555
C42 C43 1_555 1_555
C44 C45 1_555 1_555
C49 C50 1_555 1_555
C51 C52 1_555 1_555
C54 C55 1_555 1_555
C57 C58 1_555 1_555
C59 C60 1_555 1_555
C64 C65 1_555 1_555
N14 C66 1_555 1_555
C69 C70 1_555 1_555
C74 C75 1_555 1_555
N16 C76 1_555 1_555
C79 C80 1_555 1_555
C84 C85 1_555 1_555
N18 C86 1_555 1_555
C89 C90 1_555 1_555
C94 C95 1_555 1_555
N20 C96 1_555 1_555
C99 C100 1_555 1_555
C104 C105 1_555 1_555
N22 C106 1_555 1_555
C109 C110 1_555 1_555
C114 C115 1_555 1_555
N24 C116 1_555 1_555
C119 C120 1_555 1_555
C125 C126 1_555 1_555

#END
