
#######################################################################
#
#                 Cambridge Crystallographic Data Centre
#                                CCDC 
#
#######################################################################
#
# If this CIF has been generated from an entry in the Cambridge 
# Structural Database, then it will include bibliographic, chemical, 
# crystal, experimental, refinement or atomic coordinate data resulting 
# from the CCDC's data processing and validation procedures.
#
#######################################################################

data_IFUTUA
_chemical_formula_moiety         
'C132 H96 Fe4 N24 8+,4(C1 H3 N1 O2),8(Cl1 O4 1-)'
_chemical_name_systematic        
"hexakis(\m~2~-N,N'-bis(pyridin-2-ylmethylene)naphthalene-2,6-diamine)-tetra-iron(ii) octaperchlorate nitromethane unknown solvate"
_symmetry_cell_setting           triclinic
_symmetry_space_group_name_H-M   'P -1'
_symmetry_Int_Tables_number      2
_space_group_name_Hall           '-P 1'
loop_
_symmetry_equiv_pos_site_id
_symmetry_equiv_pos_as_xyz
1 x,y,z
2 -x,-y,-z
_cell_length_a                   20.494(8)
_cell_length_b                   21.095(8)
_cell_length_c                   22.710(8)
_cell_angle_alpha                68.231(16)
_cell_angle_beta                 65.485(14)
_cell_angle_gamma                82.91(2)
_cell_volume                     8290.51
_exptl_crystal_colour            purple
_exptl_crystal_description       block
_cell_formula_units_Z            2
loop_
_atom_site_label
_atom_site_type_symbol
_atom_site_fract_x
_atom_site_fract_y
_atom_site_fract_z
Fe1 Fe 0.51615(6) 0.56884(6) 0.29376(6)
Fe2 Fe 0.07724(7) 0.68488(7) 0.67496(6)
Fe3 Fe 0.42215(9) 1.08454(6) 0.27814(7)
Fe4 Fe 0.10424(8) 0.83250(7) 0.15959(7)
N1 N 0.6198(4) 0.5889(3) 0.2643(3)
N2 N 0.5093(3) 0.5884(3) 0.3763(3)
N3 N 0.1793(4) 0.6967(4) 0.6541(4)
N4 N 0.0647(4) 0.7131(4) 0.7527(4)
N5 N 0.5317(3) 0.5583(4) 0.2056(3)
N6 N 0.5085(4) 0.6646(3) 0.2393(4)
N7 N 0.4300(5) 0.9923(4) 0.3416(4)
N8 N 0.4171(5) 1.1090(4) 0.3560(4)
N9 N 0.5255(3) 0.4707(3) 0.3407(3)
N10 N 0.4147(3) 0.5394(3) 0.3321(3)
N11 N 0.1108(4) 0.7360(4) 0.2152(3)
N12 N 0.0024(5) 0.8043(5) 0.1976(4)
N13 N -0.0289(4) 0.6753(5) 0.7037(4)
N14 N 0.0595(4) 0.7803(4) 0.6221(4)
N15 N 0.3167(5) 1.0834(5) 0.3113(4)
N16 N 0.0805(4) 0.5864(4) 0.7252(4)
N17 N 0.0899(4) 0.6509(5) 0.6006(4)
N18 N 0.0824(5) 0.8661(4) 0.2356(4)
N19 N 0.5279(5) 1.0916(4) 0.2344(5)
N20 N 0.4401(7) 1.0541(4) 0.1991(5)
N21 N 0.2078(5) 0.8537(4) 0.1166(4)
N22 N 0.1301(5) 0.8063(4) 0.0785(4)
C1 C 0.6743(5) 0.5902(5) 0.2056(5)
H1 H 0.6650 0.5788 0.1730
C2 C 0.7454(5) 0.6077(5) 0.1899(5)
H2 H 0.7830 0.6090 0.1471
C3 C 0.7589(5) 0.6227(5) 0.2369(5)
H3 H 0.8067 0.6334 0.2275
C4 C 0.7027(5) 0.6225(5) 0.2998(5)
H4 H 0.7112 0.6333 0.3332
C5 C 0.6350(4) 0.6059(4) 0.3100(4)
C6 C 0.5702(4) 0.6049(4) 0.3712(4)
H5 H 0.5732 0.6162 0.4067
C7 C 0.4466(4) 0.5958(4) 0.4331(4)
C8 C 0.3988(4) 0.5392(4) 0.4821(4)
H6 H 0.4096 0.4952 0.4787
C9 C 0.3384(4) 0.5472(4) 0.5333(4)
H7 H 0.3072 0.5087 0.5651
C10 C 0.3199(4) 0.6113(4) 0.5414(4)
C11 C 0.3692(4) 0.6687(5) 0.4938(4)
C12 C 0.4336(4) 0.6580(4) 0.4404(4)
H8 H 0.4676 0.6948 0.4098
C13 C 0.3544(5) 0.7337(4) 0.5001(5)
H9 H 0.3873 0.7712 0.4688
C14 C 0.2928(6) 0.7421(5) 0.5513(6)
H10 H 0.2829 0.7858 0.5555
C15 C 0.2429(4) 0.6862(5) 0.5986(4)
C16 C 0.2566(4) 0.6227(5) 0.5941(4)
H11 H 0.2234 0.5857 0.6266
C17 C 0.1915(5) 0.7160(5) 0.6976(5)
H12 H 0.2390 0.7208 0.6933
C18 C 0.1298(5) 0.7297(6) 0.7523(5)
C19 C 0.1313(6) 0.7552(7) 0.7991(6)
H13 H 0.1757 0.7658 0.7978
C20 C 0.0678(8) 0.7650(8) 0.8479(6)
H14 H 0.0676 0.7820 0.8813
C21 C 0.0047(7) 0.7501(8) 0.8480(7)
H15 H -0.0395 0.7583 0.8808
C22 C 0.0038(6) 0.7227(6) 0.8006(5)
H16 H -0.0407 0.7111 0.8029
C23 C 0.5392(5) 0.5000(5) 0.1922(5)
H17 H 0.5356 0.4572 0.2281
C24 C 0.5522(6) 0.5019(6) 0.1269(6)
H18 H 0.5590 0.4602 0.1184
C25 C 0.5555(7) 0.5624(6) 0.0735(6)
H19 H 0.5634 0.5630 0.0290
C26 C 0.5468(6) 0.6224(6) 0.0876(5)
H20 H 0.5483 0.6653 0.0528
C27 C 0.5361(5) 0.6187(5) 0.1523(5)
C28 C 0.5237(5) 0.6768(5) 0.1760(5)
H21 H 0.5270 0.7223 0.1447
C29 C 0.4360(6) 0.9919(5) 0.3953(6)
H22 H 0.4458 0.9511 0.4262
C30 C 0.4273(6) 1.0575(5) 0.4082(5)
C31 C 0.4280(5) 1.0649(6) 0.4646(6)
H23 H 0.4340 1.0266 0.5005
C32 C 0.4200(6) 1.1284(6) 0.4690(6)
H24 H 0.4210 1.1355 0.5075
C33 C 0.4103(6) 1.1818(6) 0.4160(7)
H25 H 0.4043 1.2264 0.4182
C34 C 0.4093(6) 1.1718(5) 0.3601(6)
H26 H 0.4030 1.2095 0.3239
C35 C 0.5841(5) 0.4350(4) 0.3401(4)
H27 H 0.6292 0.4590 0.3154
C36 C 0.5830(5) 0.3659(4) 0.3729(5)
H28 H 0.6267 0.3427 0.3684
C37 C 0.5175(5) 0.3296(5) 0.4129(5)
H29 H 0.5155 0.2820 0.4384
C38 C 0.4569(5) 0.3638(4) 0.4146(5)
H30 H 0.4115 0.3402 0.4409
C39 C 0.4613(5) 0.4349(4) 0.3772(4)
C40 C 0.4002(4) 0.4771(5) 0.3701(4)
H31 H 0.3525 0.4585 0.3928
C41 C 0.3547(4) 0.5782(4) 0.3208(4)
C42 C 0.2982(5) 0.5914(6) 0.3761(5)
H32 H 0.3002 0.5770 0.4201
C43 C 0.2389(5) 0.6258(6) 0.3659(5)
H33 H 0.2007 0.6352 0.4031
C44 C 0.2354(5) 0.6466(4) 0.3013(5)
C45 C 0.2932(4) 0.6343(4) 0.2450(4)
C46 C 0.3535(4) 0.5996(4) 0.2570(4)
H34 H 0.3931 0.5915 0.2199
C47 C 0.2894(4) 0.6561(4) 0.1789(4)
H35 H 0.3286 0.6493 0.1407
C48 C 0.2292(5) 0.6868(4) 0.1708(5)
H36 H 0.2257 0.6992 0.1275
C49 C 0.1725(4) 0.7000(4) 0.2262(4)
C50 C 0.1742(5) 0.6804(4) 0.2896(4)
H37 H 0.1346 0.6890 0.3264
C51 C 0.0505(5) 0.7017(5) 0.2487(5)
H38 H 0.0471 0.6548 0.2768
C52 C -0.0113(5) 0.7384(6) 0.2411(5)
C53 C -0.0799(6) 0.7101(6) 0.2772(6)
H39 H -0.0881 0.6636 0.3070
C54 C -0.1384(6) 0.7509(8) 0.2693(8)
H40 H -0.1864 0.7330 0.2925
C55 C -0.1212(9) 0.8181(9) 0.2260(8)
H41 H -0.1584 0.8485 0.2208
C56 C -0.0523(7) 0.8412(7) 0.1910(7)
H42 H -0.0427 0.8870 0.1595
C57 C -0.0734(6) 0.6206(7) 0.7471(6)
H43 H -0.0556 0.5807 0.7718
C58 C -0.1441(6) 0.6212(8) 0.7565(6)
H44 H -0.1750 0.5825 0.7889
C59 C -0.1709(6) 0.6783(8) 0.7187(8)
H45 H -0.2188 0.6782 0.7225
C60 C -0.1264(5) 0.7337(7) 0.6765(6)
H46 H -0.1439 0.7737 0.6514
C61 C -0.0558(5) 0.7335(6) 0.6691(5)
C62 C -0.0049(6) 0.7895(6) 0.6266(5)
H47 H -0.0187 0.8325 0.6022
C63 C 0.1089(5) 0.8369(5) 0.5739(5)
C64 C 0.1538(5) 0.8637(5) 0.5948(5)
H48 H 0.1500 0.8441 0.6412
C65 C 0.2018(6) 0.9169(6) 0.5489(5)
H49 H 0.2308 0.9336 0.5638
C66 C 0.2089(6) 0.9477(6) 0.4788(5)
C67 C 0.1638(7) 0.9204(6) 0.4584(6)
C68 C 0.1136(6) 0.8674(5) 0.5075(5)
H50 H 0.0818 0.8522 0.4943
C69 C 0.2599(6) 1.0012(6) 0.4291(5)
H51 H 0.2905 1.0186 0.4420
C70 C 0.2647(7) 1.0278(6) 0.3622(6)
C71 C 0.2205(9) 1.0009(8) 0.3430(7)
H52 H 0.2250 1.0190 0.2964
C72 C 0.1717(8) 0.9496(7) 0.3895(6)
H53 H 0.1420 0.9330 0.3749
C73 C 0.2909(7) 1.1360(6) 0.2793(6)
H54 H 0.2408 1.1384 0.2902
C74 C 0.3384(4) 1.1907(3) 0.2271(3)
N23 N 0.4090(4) 1.1782(2) 0.2202(3)
C75 C 0.4631(4) 1.2268(3) 0.1711(4)
H55 H 0.5114 1.2184 0.1664
C76 C 0.4468(5) 1.2879(3) 0.1290(3)
H56 H 0.4838 1.3211 0.0955
C77 C 0.3762(6) 1.3003(3) 0.1359(4)
H57 H 0.3650 1.3420 0.1071
C78 C 0.3221(4) 1.2517(4) 0.1849(4)
H58 H 0.2738 1.2602 0.1897
C79 C 0.0811(5) 0.5549(6) 0.7865(6)
H59 H 0.0860 0.5812 0.8105
C80 C 0.0748(6) 0.4827(8) 0.8184(7)
H60 H 0.0757 0.4615 0.8629
C81 C 0.0676(7) 0.4446(8) 0.7860(10)
H61 H 0.0616 0.3963 0.8079
C82 C 0.0689(6) 0.4753(6) 0.7210(8)
H62 H 0.0647 0.4486 0.6969
C83 C 0.0763(5) 0.5443(6) 0.6910(6)
C84 C 0.0810(6) 0.5846(7) 0.6217(7)
H63 H 0.0777 0.5635 0.5926
C85 C 0.0439(4) 0.6997(3) 0.5086(3)
H64 H -0.0007 0.6759 0.5399
C86 C 0.0989(5) 0.6924(4) 0.5300(3)
C87 C 0.1657(4) 0.7275(4) 0.4841(4)
H65 H 0.2035 0.7222 0.4992
C88 C 0.1761(3) 0.7691(4) 0.4176(4)
H66 H 0.2212 0.7924 0.3872
C89 C 0.1204(3) 0.7777(3) 0.3938(3)
C90 C 0.1293(4) 0.8203(3) 0.3256(3)
H67 H 0.1740 0.8441 0.2943
C91 C 0.0743(5) 0.8276(3) 0.3042(3)
C92 C 0.0075(4) 0.7925(4) 0.3501(4)
H68 H -0.0303 0.7978 0.3350
C93 C -0.0029(3) 0.7509(4) 0.4166(4)
H69 H -0.0480 0.7276 0.4470
C94 C 0.0528(3) 0.7423(3) 0.4404(3)
C95 C 0.0669(7) 0.9283(6) 0.2242(7)
H70 H 0.0548 0.9486 0.2582
C96 C 0.0689(5) 0.9657(5) 0.1570(4)
N24 N 0.0853(5) 0.9280(4) 0.1140(4)
C97 C 0.0876(6) 0.9592(5) 0.0475(4)
H71 H 0.0988 0.9334 0.0181
C98 C 0.0735(6) 1.0281(5) 0.0238(5)
H72 H 0.0751 1.0495 -0.0217
C99 C 0.0571(7) 1.0658(4) 0.0667(7)
H73 H 0.0475 1.1130 0.0505
C100 C 0.0548(7) 1.0346(5) 0.1333(7)
H74 H 0.0436 1.0604 0.1626
C101 C 0.5730(9) 1.1082(6) 0.2555(7)
H75 H 0.5523 1.1241 0.2933
C102 C 0.6491(9) 1.1046(8) 0.2272(9)
H76 H 0.6774 1.1139 0.2475
C103 C 0.6787(10) 1.0875(9) 0.1711(10)
H77 H 0.7293 1.0853 0.1491
C104 C 0.6321(10) 1.0722(7) 0.1444(7)
H78 H 0.6519 1.0620 0.1031
C105 C 0.5583(8) 1.0724(5) 0.1792(6)
C106 C 0.5072(9) 1.0542(5) 0.1604(6)
H79 H 0.5221 1.0424 0.1203
C107 C 0.3895(7) 1.0285(5) 0.1824(5)
C108 C 0.3948(6) 0.9612(5) 0.1861(5)
H80 H 0.4309 0.9340 0.1983
C109 C 0.3470(6) 0.9330(5) 0.1718(5)
C110 C 0.2935(7) 0.9751(5) 0.1529(5)
C111 C 0.2919(8) 1.0455(6) 0.1468(6)
H81 H 0.2588 1.0745 0.1309
C112 C 0.3355(8) 1.0705(5) 0.1627(5)
H82 H 0.3315 1.1163 0.1612
C113 C 0.3503(6) 0.8663(5) 0.1736(6)
H83 H 0.3858 0.8380 0.1858
C114 C 0.3031(7) 0.8394(5) 0.1580(6)
H84 H 0.3051 0.7931 0.1613
C115 C 0.2524(5) 0.8827(5) 0.1373(5)
C116 C 0.2461(6) 0.9478(5) 0.1351(5)
H85 H 0.2106 0.9755 0.1220
C117 C 0.2423(6) 0.8409(5) 0.0604(6)
H86 H 0.2926 0.8498 0.0358
C118 C 0.2028(7) 0.8127(6) 0.0363(6)
C119 C 0.0891(7) 0.7813(8) 0.0613(6)
H87 H 0.0390 0.7771 0.0889
C120 C 0.1150(9) 0.7598(9) 0.0033(8)
H88 H 0.0828 0.7431 -0.0085
C121 C 0.1879(9) 0.7637(9) -0.0353(7)
H89 H 0.2067 0.7482 -0.0733
C122 C 0.2326(7) 0.7897(7) -0.0191(5)
H90 H 0.2831 0.7921 -0.0448
C123 C 0.5701(9) 0.7570(7) 0.2424(8)
H91 H 0.6163 0.7404 0.2226
C124 C 0.5095(10) 0.7260(6) 0.2525(8)
C125 C 0.4401(9) 0.7480(7) 0.2826(7)
H92 H 0.3988 0.7243 0.2911
C126 C 0.4343(8) 0.8079(8) 0.3002(7)
C127 C 0.4971(9) 0.8420(10) 0.2873(9)
C128 C 0.5621(10) 0.8126(8) 0.2617(8)
H93 H 0.6039 0.8324 0.2572
C129 C 0.4906(10) 0.9021(9) 0.3036(8)
H94 H 0.5325 0.9245 0.2958
C130 C 0.4264(10) 0.9274(8) 0.3298(8)
C131 C 0.3610(9) 0.8941(8) 0.3449(8)
H95 H 0.3154 0.9122 0.3639
C132 C 0.3670(10) 0.8347(9) 0.3307(9)
H96 H 0.3245 0.8110 0.3417
Cl1 Cl 0.6459(2) 0.7512(3) 0.4033(3)
O1 O 0.5741(5) 0.7581(7) 0.4205(6)
O2 O 0.6678(8) 0.7707(6) 0.4432(8)
O3 O 0.6863(5) 0.7739(6) 0.3335(6)
O4 O 0.6570(7) 0.6764(6) 0.4278(7)
Cl2 Cl 0.64183(19) 0.13624(14) 0.38951(17)
O5 O 0.6324(6) 0.1188(5) 0.4581(4)
O6 O 0.7143(5) 0.1471(6) 0.3435(5)
O7 O 0.5933(10) 0.1813(10) 0.3660(9)
O8 O 0.6168(12) 0.0746(9) 0.3918(12)
Cl3 Cl 0.76351(18) 0.43039(19) 0.1639(2)
O9 O 0.7019(6) 0.4607(6) 0.1538(7)
O10 O 0.8257(5) 0.4747(6) 0.1175(4)
O11 O 0.7737(8) 0.3659(6) 0.1535(10)
O12 O 0.7559(9) 0.4293(10) 0.2332(7)
Cl4 Cl 0.0916(4) 0.1116(3) 0.2429(3)
O13 O 0.0132(9) 0.1167(11) 0.2783(11)
O14 O 0.1056(9) 0.1348(8) 0.1687(7)
O15 O 0.0980(9) 0.0367(5) 0.2663(7)
O16 O 0.1541(10) 0.1531(11) 0.2296(15)
Cl5 Cl 0.4535(2) 0.7985(3) 0.0095(2)
O17 O 0.4401(5) 0.7645(5) 0.0804(4)
O18 O 0.5275(5) 0.8006(6) -0.0331(5)
O19 O 0.4299(8) 0.8726(7) 0.0011(8)
O20 O 0.4015(11) 0.7721(10) -0.0078(10)
Cl6 Cl 0.36444(18) 0.36466(15) 0.29702(19)
O21 O 0.3732(7) 0.4371(5) 0.2695(6)
O22 O 0.4355(5) 0.3425(5) 0.2821(6)
O23 O 0.3263(5) 0.3464(5) 0.3715(5)
O24 O 0.3346(10) 0.3543(10) 0.2548(10)
Cl7 Cl 0.9073(2) 0.7351(2) 0.06014(18)
O25 O 0.9565(6) 0.7708(5) -0.0043(4)
O26 O 0.8996(9) 0.6710(7) 0.0549(9)
O27 O 0.9186(8) 0.7164(8) 0.1193(7)
O28 O 0.8318(8) 0.7542(9) 0.0841(10)
Cl8 Cl 0.8621(5) 0.0505(5) 0.1350(5)
O29 O 0.8329(13) 0.0929(12) 0.1788(13)
O30 O 0.9188(13) 0.1071(12) 0.0821(12)
O31 O 0.8225(10) 0.0458(12) 0.0930(11)
O32 O 0.836(3) -0.0188(15) 0.176(2)
N25 N 0.9390(10) 0.9248(12) 0.4821(10)
O33 O 0.9645(13) 0.9828(13) 0.4193(14)
O34 O 0.9401(11) 0.8673(12) 0.4943(11)
C133 C 0.936(2) 0.9482(16) 0.5328(19)
H97 H 0.9374 0.9982 0.5153
H98 H 0.9774 0.9319 0.5450
H99 H 0.8917 0.9309 0.5740
N26 N 0.7894(10) 0.6240(9) 0.9326(9)
C134 C 0.8095(19) 0.5900(18) 0.9918(15)
H100 H 0.7804 0.5477 1.0220
H101 H 0.8011 0.6204 1.0179
H102 H 0.8604 0.5792 0.9750
O35 O 0.8196(8) 0.6777(8) 0.8850(8)
O36 O 0.7342(11) 0.5984(11) 0.9353(11)
O37 O 0.5969(12) 0.9461(10) 0.3676(10)
O38 O 0.6653(11) 0.9371(12) 0.2678(11)
C135 C 0.7137(19) 0.9501(18) 0.3442(19)
H103 H 0.7589 0.9466 0.3069
H104 H 0.7100 0.9140 0.3878
H105 H 0.7126 0.9948 0.3486
N27 N 0.6530(15) 0.9426(13) 0.3282(15)
C136 C 0.7488(14) 0.8953(13) 0.1139(13)
H106 H 0.7352 0.9196 0.1464
H107 H 0.7966 0.8770 0.1075
H108 H 0.7139 0.8576 0.1325
N28 N 0.7498(14) 0.9418(15) 0.0483(14)
O39 O 0.7462(17) 1.0038(15) 0.0313(16)
O40 O 0.7699(14) 0.9168(12) -0.0014(14)
O41 O 0.7626(8) 0.8170(7) 0.5990(8)
N29 N 0.7787(16) 0.8272(17) 0.5373(16)
O42 O 0.7971(17) 0.7783(17) 0.5278(16)
C137 C 0.7653(14) 0.8894(13) 0.4899(13)
H109 H 0.7527 0.9248 0.5106
H110 H 0.7256 0.8815 0.4797
H111 H 0.8086 0.9044 0.4469
O43 O 0.7036(11) 0.6936(12) 0.0461(10)
N30 N 0.7009(14) 0.7487(14) 0.0363(14)
O44 O 0.6680(14) 0.7640(13) 0.0779(14)
C138 C 0.7696(13) 0.7917(13) -0.0362(13)
H112 H 0.7933 0.7617 -0.0626
H113 H 0.8040 0.8072 -0.0243
H114 H 0.7517 0.8312 -0.0642
loop_
_geom_bond_atom_site_label_1
_geom_bond_atom_site_label_2
_geom_bond_site_symmetry_1
_geom_bond_site_symmetry_2
Fe1 N1 1_555 1_555
Fe2 N3 1_555 1_555
Fe3 N7 1_555 1_555
Fe4 N11 1_555 1_555
N1 C1 1_555 1_555
N2 Fe1 1_555 1_555
N3 C15 1_555 1_555
N4 Fe2 1_555 1_555
N5 Fe1 1_555 1_555
N6 Fe1 1_555 1_555
N7 C29 1_555 1_555
N8 Fe3 1_555 1_555
N9 Fe1 1_555 1_555
N10 Fe1 1_555 1_555
N11 C49 1_555 1_555
N12 Fe4 1_555 1_555
N13 Fe2 1_555 1_555
N14 Fe2 1_555 1_555
N15 Fe3 1_555 1_555
N16 Fe2 1_555 1_555
N17 Fe2 1_555 1_555
N18 Fe4 1_555 1_555
N19 Fe3 1_555 1_555
N20 Fe3 1_555 1_555
N21 Fe4 1_555 1_555
N22 Fe4 1_555 1_555
C1 H1 1_555 1_555
C2 C1 1_555 1_555
H2 C2 1_555 1_555
C3 C2 1_555 1_555
H3 C3 1_555 1_555
C4 C3 1_555 1_555
H4 C4 1_555 1_555
C5 N1 1_555 1_555
C6 N2 1_555 1_555
H5 C6 1_555 1_555
C7 N2 1_555 1_555
C8 C7 1_555 1_555
H6 C8 1_555 1_555
C9 C8 1_555 1_555
H7 C9 1_555 1_555
C10 C9 1_555 1_555
C11 C10 1_555 1_555
C12 C7 1_555 1_555
H8 C12 1_555 1_555
C13 C11 1_555 1_555
H9 C13 1_555 1_555
C14 C13 1_555 1_555
H10 C14 1_555 1_555
C15 C14 1_555 1_555
C16 C10 1_555 1_555
H11 C16 1_555 1_555
C17 N3 1_555 1_555
H12 C17 1_555 1_555
C18 N4 1_555 1_555
C19 C18 1_555 1_555
H13 C19 1_555 1_555
C20 C19 1_555 1_555
H14 C20 1_555 1_555
C21 C20 1_555 1_555
H15 C21 1_555 1_555
C22 N4 1_555 1_555
H16 C22 1_555 1_555
C23 N5 1_555 1_555
H17 C23 1_555 1_555
C24 C23 1_555 1_555
H18 C24 1_555 1_555
C25 C24 1_555 1_555
H19 C25 1_555 1_555
C26 C25 1_555 1_555
H20 C26 1_555 1_555
C27 N5 1_555 1_555
C28 N6 1_555 1_555
H21 C28 1_555 1_555
C29 H22 1_555 1_555
C30 N8 1_555 1_555
C31 C30 1_555 1_555
H23 C31 1_555 1_555
C32 C31 1_555 1_555
H24 C32 1_555 1_555
C33 C32 1_555 1_555
H25 C33 1_555 1_555
C34 N8 1_555 1_555
H26 C34 1_555 1_555
C35 N9 1_555 1_555
H27 C35 1_555 1_555
C36 C35 1_555 1_555
H28 C36 1_555 1_555
C37 C36 1_555 1_555
H29 C37 1_555 1_555
C38 C37 1_555 1_555
H30 C38 1_555 1_555
C39 N9 1_555 1_555
C40 N10 1_555 1_555
H31 C40 1_555 1_555
C41 N10 1_555 1_555
C42 C41 1_555 1_555
H32 C42 1_555 1_555
C43 C42 1_555 1_555
H33 C43 1_555 1_555
C44 C43 1_555 1_555
C45 C44 1_555 1_555
C46 C41 1_555 1_555
H34 C46 1_555 1_555
C47 C45 1_555 1_555
H35 C47 1_555 1_555
C48 C47 1_555 1_555
H36 C48 1_555 1_555
C49 C48 1_555 1_555
C50 C44 1_555 1_555
H37 C50 1_555 1_555
C51 N11 1_555 1_555
H38 C51 1_555 1_555
C52 N12 1_555 1_555
C53 C52 1_555 1_555
H39 C53 1_555 1_555
C54 C53 1_555 1_555
H40 C54 1_555 1_555
C55 C54 1_555 1_555
H41 C55 1_555 1_555
C56 N12 1_555 1_555
H42 C56 1_555 1_555
C57 N13 1_555 1_555
H43 C57 1_555 1_555
C58 C57 1_555 1_555
H44 C58 1_555 1_555
C59 C58 1_555 1_555
H45 C59 1_555 1_555
C60 C59 1_555 1_555
H46 C60 1_555 1_555
C61 N13 1_555 1_555
C62 N14 1_555 1_555
H47 C62 1_555 1_555
C63 N14 1_555 1_555
C64 C63 1_555 1_555
H48 C64 1_555 1_555
C65 C64 1_555 1_555
H49 C65 1_555 1_555
C66 C65 1_555 1_555
C67 C66 1_555 1_555
C68 C63 1_555 1_555
H50 C68 1_555 1_555
C69 C66 1_555 1_555
H51 C69 1_555 1_555
C70 N15 1_555 1_555
C71 C70 1_555 1_555
H52 C71 1_555 1_555
C72 C67 1_555 1_555
H53 C72 1_555 1_555
C73 N15 1_555 1_555
H54 C73 1_555 1_555
C74 C73 1_555 1_555
N23 Fe3 1_555 1_555
C75 N23 1_555 1_555
H55 C75 1_555 1_555
C76 C75 1_555 1_555
H56 C76 1_555 1_555
C77 C76 1_555 1_555
H57 C77 1_555 1_555
C78 C74 1_555 1_555
H58 C78 1_555 1_555
C79 N16 1_555 1_555
H59 C79 1_555 1_555
C80 C79 1_555 1_555
H60 C80 1_555 1_555
C81 C80 1_555 1_555
H61 C81 1_555 1_555
C82 C81 1_555 1_555
H62 C82 1_555 1_555
C83 N16 1_555 1_555
C84 N17 1_555 1_555
H63 C84 1_555 1_555
C85 H64 1_555 1_555
C86 N17 1_555 1_555
C87 C86 1_555 1_555
H65 C87 1_555 1_555
C88 C87 1_555 1_555
H66 C88 1_555 1_555
C89 C88 1_555 1_555
C90 C89 1_555 1_555
H67 C90 1_555 1_555
C91 N18 1_555 1_555
C92 C91 1_555 1_555
H68 C92 1_555 1_555
C93 C92 1_555 1_555
H69 C93 1_555 1_555
C94 C85 1_555 1_555
C95 N18 1_555 1_555
H70 C95 1_555 1_555
C96 C95 1_555 1_555
N24 Fe4 1_555 1_555
C97 N24 1_555 1_555
H71 C97 1_555 1_555
C98 C97 1_555 1_555
H72 C98 1_555 1_555
C99 C98 1_555 1_555
H73 C99 1_555 1_555
C100 C96 1_555 1_555
H74 C100 1_555 1_555
C101 N19 1_555 1_555
H75 C101 1_555 1_555
C102 C101 1_555 1_555
H76 C102 1_555 1_555
C103 C102 1_555 1_555
H77 C103 1_555 1_555
C104 C103 1_555 1_555
H78 C104 1_555 1_555
C105 N19 1_555 1_555
C106 N20 1_555 1_555
H79 C106 1_555 1_555
C107 N20 1_555 1_555
C108 C107 1_555 1_555
H80 C108 1_555 1_555
C109 C108 1_555 1_555
C110 C109 1_555 1_555
C111 C110 1_555 1_555
H81 C111 1_555 1_555
C112 C107 1_555 1_555
H82 C112 1_555 1_555
C113 C109 1_555 1_555
H83 C113 1_555 1_555
C114 C113 1_555 1_555
H84 C114 1_555 1_555
C115 N21 1_555 1_555
C116 C110 1_555 1_555
H85 C116 1_555 1_555
C117 N21 1_555 1_555
H86 C117 1_555 1_555
C118 N22 1_555 1_555
C119 N22 1_555 1_555
H87 C119 1_555 1_555
C120 C119 1_555 1_555
H88 C120 1_555 1_555
C121 C120 1_555 1_555
H89 C121 1_555 1_555
C122 C118 1_555 1_555
H90 C122 1_555 1_555
C123 H91 1_555 1_555
C124 N6 1_555 1_555
C125 C124 1_555 1_555
H92 C125 1_555 1_555
C126 C125 1_555 1_555
C127 C126 1_555 1_555
C128 C123 1_555 1_555
H93 C128 1_555 1_555
C129 C127 1_555 1_555
H94 C129 1_555 1_555
C130 N7 1_555 1_555
C131 C130 1_555 1_555
H95 C131 1_555 1_555
C132 C126 1_555 1_555
H96 C132 1_555 1_555
Cl1 O1 1_555 1_555
O2 Cl1 1_555 1_555
O3 Cl1 1_555 1_555
O4 Cl1 1_555 1_555
Cl2 O5 1_555 1_555
O6 Cl2 1_555 1_555
O7 Cl2 1_555 1_555
O8 Cl2 1_555 1_555
Cl3 O9 1_555 1_555
O10 Cl3 1_555 1_555
O11 Cl3 1_555 1_555
O12 Cl3 1_555 1_555
Cl4 O13 1_555 1_555
O14 Cl4 1_555 1_555
O15 Cl4 1_555 1_555
O16 Cl4 1_555 1_555
Cl5 O17 1_555 1_555
O18 Cl5 1_555 1_555
O19 Cl5 1_555 1_555
O20 Cl5 1_555 1_555
Cl6 O21 1_555 1_555
O22 Cl6 1_555 1_555
O23 Cl6 1_555 1_555
O24 Cl6 1_555 1_555
Cl7 O25 1_555 1_555
O26 Cl7 1_555 1_555
O27 Cl7 1_555 1_555
O28 Cl7 1_555 1_555
Cl8 O29 1_555 1_555
O30 Cl8 1_555 1_555
O31 Cl8 1_555 1_555
O32 Cl8 1_555 1_555
N25 O33 1_555 1_555
O34 N25 1_555 1_555
C133 N25 1_555 1_555
H97 C133 1_555 1_555
H98 C133 1_555 1_555
H99 C133 1_555 1_555
N26 C134 1_555 1_555
C134 H100 1_555 1_555
H101 C134 1_555 1_555
H102 C134 1_555 1_555
O35 N26 1_555 1_555
O36 N26 1_555 1_555
O37 N27 1_555 1_555
O38 N27 1_555 1_555
C135 H103 1_555 1_555
H104 C135 1_555 1_555
H105 C135 1_555 1_555
N27 C135 1_555 1_555
C136 H106 1_555 1_555
H107 C136 1_555 1_555
H108 C136 1_555 1_555
N28 C136 1_555 1_555
O39 N28 1_555 1_555
O40 N28 1_555 1_555
O41 N29 1_555 1_555
N29 O42 1_555 1_555
C137 N29 1_555 1_555
H109 C137 1_555 1_555
H110 C137 1_555 1_555
H111 C137 1_555 1_555
O43 N30 1_555 1_555
N30 O44 1_555 1_555
C138 N30 1_555 1_555
H112 C138 1_555 1_555
H113 C138 1_555 1_555
H114 C138 1_555 1_555
C4 C5 1_555 1_555
C5 C6 1_555 1_555
C11 C12 1_555 1_555
C15 C16 1_555 1_555
C17 C18 1_555 1_555
C21 C22 1_555 1_555
C26 C27 1_555 1_555
C27 C28 1_555 1_555
C29 C30 1_555 1_555
C33 C34 1_555 1_555
C38 C39 1_555 1_555
C39 C40 1_555 1_555
C45 C46 1_555 1_555
C49 C50 1_555 1_555
C51 C52 1_555 1_555
C55 C56 1_555 1_555
C60 C61 1_555 1_555
C61 C62 1_555 1_555
C67 C68 1_555 1_555
C69 C70 1_555 1_555
C71 C72 1_555 1_555
C74 N23 1_555 1_555
C77 C78 1_555 1_555
C82 C83 1_555 1_555
C83 C84 1_555 1_555
C85 C86 1_555 1_555
C89 C94 1_555 1_555
C90 C91 1_555 1_555
C93 C94 1_555 1_555
C96 N24 1_555 1_555
C99 C100 1_555 1_555
C104 C105 1_555 1_555
C105 C106 1_555 1_555
C111 C112 1_555 1_555
C114 C115 1_555 1_555
C115 C116 1_555 1_555
C117 C118 1_555 1_555
C121 C122 1_555 1_555
C123 C124 1_555 1_555
C127 C128 1_555 1_555
C129 C130 1_555 1_555
C131 C132 1_555 1_555

#END
