
#######################################################################
#
#                 Cambridge Crystallographic Data Centre
#                                CCDC 
#
#######################################################################
#
# If this CIF has been generated from an entry in the Cambridge 
# Structural Database, then it will include bibliographic, chemical, 
# crystal, experimental, refinement or atomic coordinate data resulting 
# from the CCDC's data processing and validation procedures.
#
#######################################################################

data_IFUVEM
_chemical_formula_moiety         
'C132 H96 Co4 N24 8+,5(C1 H3 N1 O2),8(B1 F4 1-)'
_chemical_name_systematic        
"hexakis(\m~2~-N,N'-bis(pyridin-2-ylmethylene)naphthalene-2,6-diamine)-tetra-cobalt(ii) octakis(tetrafluoroborate) nitromethane unknown solvate"
_symmetry_cell_setting           triclinic
_symmetry_space_group_name_H-M   'P -1'
_symmetry_Int_Tables_number      2
_space_group_name_Hall           '-P 1'
loop_
_symmetry_equiv_pos_site_id
_symmetry_equiv_pos_as_xyz
1 x,y,z
2 -x,-y,-z
_cell_length_a                   16.476(3)
_cell_length_b                   21.246(4)
_cell_length_c                   27.807(6)
_cell_angle_alpha                95.51(3)
_cell_angle_beta                 97.03(3)
_cell_angle_gamma                111.25(3)
_cell_volume                     8899.5
_exptl_crystal_colour            orange
_exptl_crystal_description       block
_cell_formula_units_Z            2
loop_
_atom_site_label
_atom_site_type_symbol
_atom_site_fract_x
_atom_site_fract_y
_atom_site_fract_z
Co1 Co 0.49347(6) 0.95570(5) 0.17103(4)
Co2 Co 0.74701(6) 1.48024(5) 0.18390(4)
Co3 Co 0.88563(7) 1.29260(5) 0.50862(4)
Co4 Co 1.17201(7) 1.19137(5) 0.19953(4)
N1 N 0.5458(4) 0.8786(3) 0.1579(2)
N2 N 0.6054(5) 0.9868(4) 0.2289(2)
N3 N 0.7687(4) 1.2761(4) 0.4562(2)
N4 N 0.8445(5) 1.3705(3) 0.5361(2)
N5 N 0.4081(4) 0.9000(3) 0.2165(2)
N6 N 0.4464(4) 1.0307(3) 0.2052(2)
N7 N 0.6492(4) 1.4308(3) 0.2272(2)
N8 N 0.7222(4) 1.5634(3) 0.2197(2)
N9 N 0.8458(4) 1.5436(3) 0.1486(2)
N10 N 0.8682(4) 1.5036(3) 0.2358(2)
N11 N 0.9833(5) 1.3601(3) 0.4729(2)
N12 N 1.0046(5) 1.3227(4) 0.5609(2)
N13 N 0.8052(5) 1.2176(3) 0.5454(2)
N14 N 0.9062(5) 1.2022(4) 0.4809(2)
N15 N 1.0996(4) 1.1270(3) 0.2484(2)
N16 N 1.1908(4) 1.0985(3) 0.1817(2)
N17 N 1.2446(4) 1.2420(3) 0.1461(2)
N18 N 1.0714(4) 1.1669(3) 0.1365(3)
N19 N 0.5567(4) 1.0094(3) 0.1164(2)
N20 N 0.3895(4) 0.9239(3) 0.1097(2)
N21 N 0.6484(4) 1.4547(3) 0.1204(2)
N22 N 0.7574(4) 1.3919(3) 0.1445(3)
N23 N 1.1548(4) 1.2833(3) 0.2251(2)
N24 N 1.2769(4) 1.2367(3) 0.2606(2)
C1 C 0.5221(6) 0.8291(4) 0.1204(3)
H1 H 0.4742 0.8244 0.0957
C2 C 0.5648(6) 0.7832(4) 0.1156(4)
H2 H 0.5485 0.7493 0.0875
C3 C 0.6306(7) 0.7885(5) 0.1526(4)
H3 H 0.6594 0.7570 0.1508
C4 C 0.6550(7) 0.8380(5) 0.1914(3)
H4 H 0.7017 0.8423 0.2169
C5 C 0.6113(5) 0.8829(4) 0.1940(3)
C6 C 0.6395(6) 0.9414(5) 0.2323(3)
H5 H 0.6830 0.9462 0.2597
C7 C 0.6418(8) 1.0494(7) 0.2665(4)
C8 C 0.6857(7) 1.1163(5) 0.2511(4)
H6 H 0.6915 1.1199 0.2178
C9 C 0.7165(8) 1.1704(6) 0.2848(4)
H7 H 0.7464 1.2145 0.2767
C10 C 0.7041(6) 1.1618(6) 0.3334(3)
C11 C 0.6585(7) 1.1083(5) 0.3492(3)
C12 C 0.6272(9) 1.0423(6) 0.3098(5)
H8 H 0.5981 0.9983 0.3182
C13 C 0.6518(12) 1.1007(7) 0.3957(5)
H9 H 0.6261 1.0576 0.4062
C14 C 0.6838(10) 1.1579(7) 0.4252(6)
H10 H 0.6731 1.1551 0.4579
C15 C 0.7300(6) 1.2208(5) 0.4162(4)
C16 C 0.7430(8) 1.2269(5) 0.3717(3)
H11 H 0.7754 1.2700 0.3629
C17 C 0.7313(6) 1.3172(5) 0.4664(3)
H12 H 0.6794 1.3146 0.4458
C18 C 0.7686(6) 1.3685(4) 0.5101(3)
C19 C 0.7308(8) 1.4134(6) 0.5239(4)
H13 H 0.6798 1.4142 0.5043
C20 C 0.7702(10) 1.4588(6) 0.5683(5)
H14 H 0.7454 1.4904 0.5793
C21 C 0.8427(9) 1.4570(5) 0.5948(4)
H15 H 0.8684 1.4860 0.6254
C22 C 0.8781(7) 1.4139(4) 0.5777(3)
H16 H 0.9305 1.4143 0.5965
C23 C 0.3823(6) 0.8330(4) 0.2196(3)
H17 H 0.4084 0.8069 0.2022
C24 C 0.3192(7) 0.8004(5) 0.2472(4)
H18 H 0.3028 0.7529 0.2483
C25 C 0.2810(8) 0.8367(5) 0.2726(4)
H19 H 0.2379 0.8154 0.2919
C26 C 0.3066(7) 0.9056(5) 0.2696(4)
H20 H 0.2810 0.9324 0.2869
C27 C 0.3695(5) 0.9353(4) 0.2416(3)
C28 C 0.3965(5) 1.0069(4) 0.2351(3)
H21 H 0.3758 1.0360 0.2538
C29 C 0.4742(4) 1.1028(3) 0.2016(3)
C30 C 0.5118(5) 1.1503(4) 0.2436(3)
H22 H 0.5146 1.1356 0.2747
C31 C 0.5459(5) 1.2206(4) 0.2404(3)
C32 C 0.5381(4) 1.2423(4) 0.1941(3)
C33 C 0.4964(5) 1.1915(4) 0.1520(3)
H23 H 0.4893 1.2050 0.1207
C34 C 0.4668(5) 1.1239(4) 0.1559(3)
H24 H 0.4408 1.0908 0.1273
C35 C 0.5738(4) 1.3124(3) 0.1911(3)
H25 H 0.5706 1.3267 0.1598
C36 C 0.6125(5) 1.3600(4) 0.2312(3)
C37 C 0.6195(5) 1.3396(4) 0.2779(3)
H26 H 0.6466 1.3730 0.3063
C38 C 0.5870(5) 1.2711(4) 0.2823(3)
H27 H 0.5923 1.2576 0.3138
C39 C 0.6252(5) 1.4723(4) 0.2519(3)
H28 H 0.5819 1.4556 0.2722
C40 C 0.6625(5) 1.5444(4) 0.2497(3)
C41 C 0.6410(6) 1.5921(4) 0.2767(3)
H29 H 0.5987 1.5779 0.2978
C42 C 0.6807(6) 1.6606(4) 0.2731(4)
H30 H 0.6663 1.6939 0.2916
C43 C 0.7409(6) 1.6794(4) 0.2424(3)
H31 H 0.7685 1.7260 0.2388
C44 C 0.7611(6) 1.6301(4) 0.2167(3)
H32 H 0.8043 1.6437 0.1961
C45 C 0.8359(6) 1.5670(5) 0.1052(3)
H33 H 0.7785 1.5511 0.0861
C46 C 0.9055(6) 1.6129(5) 0.0875(3)
H34 H 0.8960 1.6293 0.0575
C47 C 0.9877(7) 1.6336(7) 0.1146(4)
H35 H 1.0365 1.6656 0.1036
C48 C 1.0016(6) 1.6089(6) 0.1580(4)
H36 H 1.0596 1.6221 0.1759
C49 C 0.9296(5) 1.5647(4) 0.1747(3)
C50 C 0.9355(5) 1.5395(4) 0.2199(3)
H37 H 0.9921 1.5502 0.2388
C51 C 0.8784(5) 1.4787(4) 0.2808(3)
C52 C 0.9322(6) 1.4443(4) 0.2892(3)
H38 H 0.9623 1.4361 0.2638
C53 C 0.9460(5) 1.4202(4) 0.3337(3)
C54 C 0.8993(5) 1.4349(4) 0.3718(3)
C55 C 0.8443(5) 1.4695(4) 0.3621(3)
H39 H 0.8141 1.4792 0.3870
C56 C 0.8319(5) 1.4901(4) 0.3181(3)
H40 H 0.7917 1.5123 0.3123
C57 C 1.0011(7) 1.3842(5) 0.3433(3)
H41 H 1.0297 1.3731 0.3180
C58 C 1.0146(7) 1.3648(5) 0.3878(3)
H42 H 1.0531 1.3412 0.3936
C59 C 0.9697(5) 1.3804(4) 0.4261(3)
C60 C 0.9144(5) 1.4122(4) 0.4173(3)
H43 H 0.8836 1.4202 0.4425
C61 C 1.0596(6) 1.3766(4) 0.4953(4)
H44 H 1.1081 1.4009 0.4804
C62 C 1.0767(6) 1.3594(4) 0.5442(3)
C63 C 1.1603(7) 1.3765(5) 0.5705(4)
H45 H 1.2109 1.4013 0.5572
C64 C 1.1701(9) 1.3571(6) 0.6163(4)
H46 H 1.2271 1.3684 0.6349
C65 C 1.0969(9) 1.3221(6) 0.6336(4)
H47 H 1.1010 1.3091 0.6653
C66 C 1.0144(7) 1.3048(5) 0.6042(3)
H48 H 0.9630 1.2789 0.6163
C67 C 0.7509(6) 1.2239(5) 0.5754(3)
H49 H 0.7458 1.2669 0.5820
C68 C 0.7001(7) 1.1690(6) 0.5979(3)
H50 H 0.6611 1.1746 0.6188
C69 C 0.7090(9) 1.1084(6) 0.5886(4)
H51 H 0.6772 1.0708 0.6037
C70 C 0.7636(9) 1.1021(6) 0.5578(5)
H52 H 0.7695 1.0595 0.5505
C71 C 0.8107(7) 1.1571(5) 0.5369(3)
C72 C 0.8696(7) 1.1512(5) 0.5007(3)
H53 H 0.8788 1.1100 0.4932
C73 C 0.9590(6) 1.1974(4) 0.4435(3)
C74 C 0.9126(7) 1.1650(5) 0.3977(4)
H54 H 0.8498 1.1468 0.3920
C75 C 0.9600(6) 1.1589(5) 0.3585(3)
C76 C 1.0520(6) 1.1859(4) 0.3680(3)
C77 C 1.0948(7) 1.2181(6) 0.4140(4)
H55 H 1.1575 1.2378 0.4207
C78 C 1.0460(7) 1.2225(6) 0.4518(4)
H56 H 1.0767 1.2439 0.4839
C79 C 0.9166(8) 1.1270(10) 0.3133(5)
H57 H 0.8539 1.1102 0.3072
C80 C 0.9603(7) 1.1179(8) 0.2753(5)
H58 H 0.9288 1.0968 0.2433
C81 C 1.0543(6) 1.1413(4) 0.2859(3)
C82 C 1.0984(6) 1.1774(5) 0.3299(3)
H59 H 1.1612 1.1973 0.3354
C83 C 1.1057(6) 1.0693(5) 0.2448(3)
H60 H 1.0810 1.0387 0.2667
C84 C 1.1508(5) 1.0486(4) 0.2069(3)
C85 C 1.1495(6) 0.9837(4) 0.1981(3)
H61 H 1.1207 0.9496 0.2168
C86 C 1.1913(6) 0.9699(5) 0.1613(4)
H62 H 1.1919 0.9254 0.1544
C87 C 1.2325(6) 1.0193(5) 0.1339(4)
H63 H 1.2606 1.0097 0.1079
C88 C 1.2310(5) 1.0828(5) 0.1460(3)
H64 H 1.2601 1.1178 0.1281
C89 C 1.3299(5) 1.2784(4) 0.1510(3)
H65 H 1.3667 1.2827 0.1812
C90 C 1.3682(6) 1.3105(5) 0.1137(4)
H66 H 1.4298 1.3373 0.1190
C91 C 1.3190(7) 1.3039(5) 0.0707(4)
H67 H 1.3451 1.3239 0.0445
C92 C 1.2274(6) 1.2668(5) 0.0646(4)
H68 H 1.1898 1.2626 0.0347
C93 C 1.1944(5) 1.2369(4) 0.1030(3)
C94 C 1.0981(5) 1.1953(4) 0.1001(3)
H69 H 1.0572 1.1901 0.0714
C95 C 0.9782(5) 1.1301(4) 0.1330(3)
C96 C 0.9191(5) 1.1606(4) 0.1216(3)
H70 H 0.9398 1.2060 0.1145
C97 C 0.8282(5) 1.1252(4) 0.1205(3)
C98 C 0.7988(5) 1.0560(4) 0.1315(3)
C99 C 0.8613(6) 1.0272(4) 0.1411(3)
H71 H 0.8422 0.9812 0.1471
C100 C 0.9505(5) 1.0633(4) 0.1421(3)
H72 H 0.9921 1.0425 0.1489
C101 C 0.7652(5) 1.1540(4) 0.1096(3)
H73 H 0.7841 1.2000 0.1037
C102 C 0.6758(6) 1.1166(5) 0.1074(3)
H74 H 0.6337 1.1363 0.0986
C103 C 0.6478(5) 1.0494(4) 0.1182(3)
C104 C 0.7076(5) 1.0206(4) 0.1293(3)
H75 H 0.6871 0.9748 0.1358
C105 C 0.5020(6) 1.0045(5) 0.0768(3)
H76 H 0.5222 1.0299 0.0514
C106 C 0.4098(5) 0.9596(4) 0.0720(3)
C107 C 0.3517(7) 0.9491(7) 0.0305(4)
H77 H 0.3687 0.9750 0.0049
C108 C 0.2680(8) 0.9005(8) 0.0258(4)
H78 H 0.2265 0.8916 -0.0034
C109 C 0.2458(7) 0.8657(6) 0.0630(5)
H79 H 0.1876 0.8329 0.0609
C110 C 0.3076(6) 0.8778(4) 0.1045(4)
H80 H 0.2911 0.8522 0.1303
C111 C 0.5910(5) 1.4835(4) 0.1108(3)
H81 H 0.5886 1.5177 0.1346
C112 C 0.5319(5) 1.4638(5) 0.0647(4)
H82 H 0.4909 1.4851 0.0580
C113 C 0.5349(7) 1.4153(6) 0.0315(4)
H83 H 0.4959 1.4019 0.0010
C114 C 0.5957(7) 1.3842(5) 0.0417(4)
H84 H 0.5990 1.3499 0.0184
C115 C 0.6514(5) 1.4052(4) 0.0873(3)
C116 C 0.7138(5) 1.3744(4) 0.1018(3)
H85 H 0.7218 1.3413 0.0794
C117 C 0.8220(5) 1.3616(4) 0.1606(3)
C118 C 0.8985(6) 1.3766(5) 0.1428(3)
H86 H 0.9092 1.4033 0.1170
C119 C 0.9620(5) 1.3523(4) 0.1627(3)
C120 C 0.9456(5) 1.3108(4) 0.1985(3)
C121 C 0.8646(7) 1.2915(5) 0.2135(4)
H87 H 0.8507 1.2590 0.2355
C122 C 0.8017(6) 1.3189(5) 0.1970(4)
H88 H 0.7483 1.3091 0.2098
C123 C 1.0450(7) 1.3705(7) 0.1463(5)
H89 H 1.0567 1.3975 0.1208
C124 C 1.1079(7) 1.3488(6) 0.1673(4)
H90 H 1.1639 1.3622 0.1571
C125 C 1.0895(6) 1.3061(4) 0.2048(3)
C126 C 1.0101(6) 1.2873(4) 0.2189(3)
H91 H 0.9971 1.2577 0.2428
C127 C 1.2162(6) 1.3216(4) 0.2604(3)
H92 H 1.2185 1.3657 0.2724
C128 C 1.2809(6) 1.2976(5) 0.2813(3)
C129 C 1.3442(8) 1.3321(6) 0.3214(4)
H93 H 1.3477 1.3754 0.3364
C130 C 1.4031(9) 1.3043(8) 0.3404(5)
H94 H 1.4500 1.3298 0.3665
C131 C 1.3934(7) 1.2421(7) 0.3217(4)
H95 H 1.4280 1.2197 0.3367
C132 C 1.3337(6) 1.2110(5) 0.2809(4)
H96 H 1.3316 1.1683 0.2656
B1 B 0.6809(7) 0.6567(5) 0.0688(4)
F1 F 0.7190(6) 0.6606(4) 0.1125(2)
F2 F 0.6752(5) 0.6025(3) 0.0360(2)
F3 F 0.6909(9) 0.7166(5) 0.0521(4)
F4 F 0.5912(7) 0.6396(6) 0.0769(4)
B2 B 0.6259(10) 0.4529(8) 0.4034(6)
F7 F 0.6456(5) 0.4873(4) 0.3677(3)
F8 F 0.5509(8) 0.4474(6) 0.4219(4)
F9 F 0.6271(5) 0.3892(4) 0.3967(3)
F10 F 0.6916(7) 0.4897(5) 0.4435(4)
B3 B 0.1502(11) 0.6669(6) 0.3048(5)
F11 F 0.2361(6) 0.6828(4) 0.3272(3)
F12 F 0.1438(5) 0.6652(4) 0.2557(2)
F13 F 0.1301(5) 0.7231(4) 0.3230(3)
F14 F 0.0905(7) 0.6093(4) 0.3156(3)
B4 B 0.4027(9) 0.4573(7) 0.2139(5)
F15 F 0.3161(8) 0.4331(6) 0.1915(4)
F16 F 0.4248(7) 0.5148(5) 0.2436(4)
F17 F 0.4591(6) 0.4701(4) 0.1830(3)
F18 F 0.4145(8) 0.4069(6) 0.2340(5)
B6 B 0.5497(9) 0.1886(7) 0.0153(5)
F23 F 0.5928(7) 0.2234(6) 0.0607(3)
F24 F 0.6072(7) 0.1873(6) -0.0162(4)
F25 F 0.4970(7) 0.2206(5) -0.0046(4)
F26 F 0.5003(9) 0.1229(6) 0.0191(5)
B8 B 0.0218(10) 0.7079(8) 0.9891(7)
F31 F 0.0100(11) 0.6431(7) 0.9797(6)
F32 F -0.0568(9) 0.7112(9) 0.9814(7)
F33 F 0.0794(9) 0.7450(7) 0.9653(5)
F34 F 0.0611(9) 0.7253(7) 1.0396(4)
B9 B 0.9012(12) 0.9174(9) 0.2473(7)
F35 F 0.8409(7) 0.9492(5) 0.2481(4)
F36 F 0.8533(10) 0.8473(8) 0.2437(5)
F37 F 0.9405(10) 0.9309(7) 0.2073(6)
F38 F 0.9624(10) 0.9422(7) 0.2898(6)
O1 O 0.4845(16) 0.1432(14) 0.3692(9)
O2 O 0.4446(14) 0.0278(12) 0.3593(8)
N25 N 0.459(2) 0.0824(19) 0.3746(12)
C133 C 0.444(3) 0.097(2) 0.4322(16)
H97 H 0.4680 0.1461 0.4437
H98 H 0.4740 0.0747 0.4532
H99 H 0.3804 0.0781 0.4336
B11 B 0.2353(15) 0.0517(12) 0.3503(8)
F43 F 0.2650(10) 0.0533(8) 0.3050(5)
F44 F 0.2561(13) 0.0051(9) 0.3776(8)
F45 F 0.1416(11) 0.0312(10) 0.3429(7)
F46 F 0.2750(13) 0.1178(8) 0.3784(7)
N26 N 0.7288(13) 0.5055(9) 0.9614(7)
O3 O 0.6485(11) 0.4652(8) 0.9431(5)
O4 O 0.7724(9) 0.4902(6) 0.9931(5)
C134 C 0.7579(13) 0.5543(10) 0.9335(7)
H100 H 0.7089 0.5518 0.9086
H101 H 0.8045 0.5478 0.9175
H102 H 0.7815 0.5992 0.9541
C135 C 0.2921(13) 0.1489(10) 0.9718(7)
H103 H 0.2638 0.1231 0.9391
H104 H 0.3554 0.1732 0.9721
H105 H 0.2653 0.1820 0.9801
O5 O 0.3074(14) 0.1157(11) 1.0478(9)
N27 N 0.279(2) 0.0984(18) 1.0106(13)
O6 O 0.2482(18) 0.0406(15) 0.9866(10)
O7 O 0.2439(13) 0.3854(9) 0.4551(6)
N28 N 0.3086(18) 0.3825(12) 0.4556(8)
C136 C 0.3097(15) 0.3206(12) 0.4322(9)
H106 H 0.3708 0.3234 0.4351
H107 H 0.2837 0.3131 0.3975
H108 H 0.2753 0.2826 0.4479
O8 O 0.3979(18) 0.4207(12) 0.4794(9)
N29 N 0.0305(14) 0.8025(10) 0.2660(8)
O9 O 0.0682(14) 0.8184(10) 0.2291(8)
O10 O -0.0317(19) 0.7470(14) 0.2548(10)
C137 C 0.0555(16) 0.8417(12) 0.3146(8)
H109 H 0.1069 0.8839 0.3153
H110 H 0.0706 0.8147 0.3383
H111 H 0.0061 0.8532 0.3232
O11 O 0.2137(13) 0.7010(10) 0.1344(8)
N30 N 0.2509(16) 0.6924(11) 0.1014(9)
O12 O 0.3336(14) 0.7277(11) 0.1159(8)
C138 C 0.245(2) 0.6667(16) 0.0550(10)
H112 H 0.3046 0.6765 0.0474
H113 H 0.2141 0.6875 0.0333
H114 H 0.2125 0.6171 0.0501
loop_
_geom_bond_atom_site_label_1
_geom_bond_atom_site_label_2
_geom_bond_site_symmetry_1
_geom_bond_site_symmetry_2
Co1 N1 1_555 1_555
Co2 N7 1_555 1_555
Co3 N3 1_555 1_555
Co4 N15 1_555 1_555
N1 C1 1_555 1_555
N2 Co1 1_555 1_555
N3 C15 1_555 1_555
N4 Co3 1_555 1_555
N5 Co1 1_555 1_555
N6 Co1 1_555 1_555
N7 C36 1_555 1_555
N8 Co2 1_555 1_555
N9 Co2 1_555 1_555
N10 Co2 1_555 1_555
N11 Co3 1_555 1_555
N12 Co3 1_555 1_555
N13 Co3 1_555 1_555
N14 Co3 1_555 1_555
N15 C81 1_555 1_555
N16 Co4 1_555 1_555
N17 Co4 1_555 1_555
N18 Co4 1_555 1_555
N19 Co1 1_555 1_555
N20 Co1 1_555 1_555
N21 Co2 1_555 1_555
N22 Co2 1_555 1_555
N23 Co4 1_555 1_555
N24 Co4 1_555 1_555
C1 H1 1_555 1_555
C2 C1 1_555 1_555
H2 C2 1_555 1_555
C3 C2 1_555 1_555
H3 C3 1_555 1_555
C4 C3 1_555 1_555
H4 C4 1_555 1_555
C5 N1 1_555 1_555
C6 N2 1_555 1_555
H5 C6 1_555 1_555
C7 N2 1_555 1_555
C8 C7 1_555 1_555
H6 C8 1_555 1_555
C9 C8 1_555 1_555
H7 C9 1_555 1_555
C10 C9 1_555 1_555
C11 C10 1_555 1_555
C12 C7 1_555 1_555
H8 C12 1_555 1_555
C13 C11 1_555 1_555
H9 C13 1_555 1_555
C14 C13 1_555 1_555
H10 C14 1_555 1_555
C15 C14 1_555 1_555
C16 C10 1_555 1_555
H11 C16 1_555 1_555
C17 N3 1_555 1_555
H12 C17 1_555 1_555
C18 N4 1_555 1_555
C19 C18 1_555 1_555
H13 C19 1_555 1_555
C20 C19 1_555 1_555
H14 C20 1_555 1_555
C21 C20 1_555 1_555
H15 C21 1_555 1_555
C22 N4 1_555 1_555
H16 C22 1_555 1_555
C23 N5 1_555 1_555
H17 C23 1_555 1_555
C24 C23 1_555 1_555
H18 C24 1_555 1_555
C25 C24 1_555 1_555
H19 C25 1_555 1_555
C26 C25 1_555 1_555
H20 C26 1_555 1_555
C27 N5 1_555 1_555
C28 N6 1_555 1_555
H21 C28 1_555 1_555
C29 N6 1_555 1_555
C30 C29 1_555 1_555
H22 C30 1_555 1_555
C31 C30 1_555 1_555
C32 C31 1_555 1_555
C33 C32 1_555 1_555
H23 C33 1_555 1_555
C34 C29 1_555 1_555
H24 C34 1_555 1_555
C35 C32 1_555 1_555
H25 C35 1_555 1_555
C36 C35 1_555 1_555
C37 C36 1_555 1_555
H26 C37 1_555 1_555
C38 C31 1_555 1_555
H27 C38 1_555 1_555
C39 N7 1_555 1_555
H28 C39 1_555 1_555
C40 N8 1_555 1_555
C41 C40 1_555 1_555
H29 C41 1_555 1_555
C42 C41 1_555 1_555
H30 C42 1_555 1_555
C43 C42 1_555 1_555
H31 C43 1_555 1_555
C44 N8 1_555 1_555
H32 C44 1_555 1_555
C45 N9 1_555 1_555
H33 C45 1_555 1_555
C46 C45 1_555 1_555
H34 C46 1_555 1_555
C47 C46 1_555 1_555
H35 C47 1_555 1_555
C48 C47 1_555 1_555
H36 C48 1_555 1_555
C49 N9 1_555 1_555
C50 N10 1_555 1_555
H37 C50 1_555 1_555
C51 N10 1_555 1_555
C52 C51 1_555 1_555
H38 C52 1_555 1_555
C53 C52 1_555 1_555
C54 C53 1_555 1_555
C55 C54 1_555 1_555
H39 C55 1_555 1_555
C56 C51 1_555 1_555
H40 C56 1_555 1_555
C57 C53 1_555 1_555
H41 C57 1_555 1_555
C58 C57 1_555 1_555
H42 C58 1_555 1_555
C59 N11 1_555 1_555
C60 C54 1_555 1_555
H43 C60 1_555 1_555
C61 N11 1_555 1_555
H44 C61 1_555 1_555
C62 N12 1_555 1_555
C63 C62 1_555 1_555
H45 C63 1_555 1_555
C64 C63 1_555 1_555
H46 C64 1_555 1_555
C65 C64 1_555 1_555
H47 C65 1_555 1_555
C66 N12 1_555 1_555
H48 C66 1_555 1_555
C67 N13 1_555 1_555
H49 C67 1_555 1_555
C68 C67 1_555 1_555
H50 C68 1_555 1_555
C69 C68 1_555 1_555
H51 C69 1_555 1_555
C70 C69 1_555 1_555
H52 C70 1_555 1_555
C71 N13 1_555 1_555
C72 N14 1_555 1_555
H53 C72 1_555 1_555
C73 N14 1_555 1_555
C74 C73 1_555 1_555
H54 C74 1_555 1_555
C75 C74 1_555 1_555
C76 C75 1_555 1_555
C77 C76 1_555 1_555
H55 C77 1_555 1_555
C78 C73 1_555 1_555
H56 C78 1_555 1_555
C79 C75 1_555 1_555
H57 C79 1_555 1_555
C80 C79 1_555 1_555
H58 C80 1_555 1_555
C81 C80 1_555 1_555
C82 C76 1_555 1_555
H59 C82 1_555 1_555
C83 N15 1_555 1_555
H60 C83 1_555 1_555
C84 N16 1_555 1_555
C85 C84 1_555 1_555
H61 C85 1_555 1_555
C86 C85 1_555 1_555
H62 C86 1_555 1_555
C87 C86 1_555 1_555
H63 C87 1_555 1_555
C88 N16 1_555 1_555
H64 C88 1_555 1_555
C89 N17 1_555 1_555
H65 C89 1_555 1_555
C90 C89 1_555 1_555
H66 C90 1_555 1_555
C91 C90 1_555 1_555
H67 C91 1_555 1_555
C92 C91 1_555 1_555
H68 C92 1_555 1_555
C93 N17 1_555 1_555
C94 N18 1_555 1_555
H69 C94 1_555 1_555
C95 N18 1_555 1_555
C96 C95 1_555 1_555
H70 C96 1_555 1_555
C97 C96 1_555 1_555
C98 C97 1_555 1_555
C99 C98 1_555 1_555
H71 C99 1_555 1_555
C100 C95 1_555 1_555
H72 C100 1_555 1_555
C101 C97 1_555 1_555
H73 C101 1_555 1_555
C102 C101 1_555 1_555
H74 C102 1_555 1_555
C103 N19 1_555 1_555
C104 C98 1_555 1_555
H75 C104 1_555 1_555
C105 N19 1_555 1_555
H76 C105 1_555 1_555
C106 N20 1_555 1_555
C107 C106 1_555 1_555
H77 C107 1_555 1_555
C108 C107 1_555 1_555
H78 C108 1_555 1_555
C109 C108 1_555 1_555
H79 C109 1_555 1_555
C110 N20 1_555 1_555
H80 C110 1_555 1_555
C111 N21 1_555 1_555
H81 C111 1_555 1_555
C112 C111 1_555 1_555
H82 C112 1_555 1_555
C113 C112 1_555 1_555
H83 C113 1_555 1_555
C114 C113 1_555 1_555
H84 C114 1_555 1_555
C115 N21 1_555 1_555
C116 N22 1_555 1_555
H85 C116 1_555 1_555
C117 N22 1_555 1_555
C118 C117 1_555 1_555
H86 C118 1_555 1_555
C119 C118 1_555 1_555
C120 C119 1_555 1_555
C121 C120 1_555 1_555
H87 C121 1_555 1_555
C122 C117 1_555 1_555
H88 C122 1_555 1_555
C123 C119 1_555 1_555
H89 C123 1_555 1_555
C124 C123 1_555 1_555
H90 C124 1_555 1_555
C125 N23 1_555 1_555
C126 C120 1_555 1_555
H91 C126 1_555 1_555
C127 N23 1_555 1_555
H92 C127 1_555 1_555
C128 N24 1_555 1_555
C129 C128 1_555 1_555
H93 C129 1_555 1_555
C130 C129 1_555 1_555
H94 C130 1_555 1_555
C131 C130 1_555 1_555
H95 C131 1_555 1_555
C132 N24 1_555 1_555
H96 C132 1_555 1_555
B1 F1 1_555 1_555
F2 B1 1_555 1_555
F3 B1 1_555 1_555
F4 B1 1_555 1_555
B2 F7 1_555 1_555
F8 B2 1_555 1_555
F9 B2 1_555 1_555
F10 B2 1_555 1_555
B3 F11 1_555 1_555
F12 B3 1_555 1_555
F13 B3 1_555 1_555
F14 B3 1_555 1_555
B4 F15 1_555 1_555
F16 B4 1_555 1_555
F17 B4 1_555 1_555
F18 B4 1_555 1_555
B6 F23 1_555 1_555
F24 B6 1_555 1_555
F25 B6 1_555 1_555
F26 B6 1_555 1_555
B8 F31 1_555 1_555
F32 B8 1_555 1_555
F33 B8 1_555 1_555
F34 B8 1_555 1_555
B9 F35 1_555 1_555
F36 B9 1_555 1_555
F37 B9 1_555 1_555
F38 B9 1_555 1_555
O1 N25 1_555 1_555
O2 N25 1_555 1_555
N25 C133 1_555 1_555
C133 H97 1_555 1_555
H98 C133 1_555 1_555
H99 C133 1_555 1_555
B11 F43 1_555 1_555
F44 B11 1_555 1_555
F45 B11 1_555 1_555
F46 B11 1_555 1_555
N26 O3 1_555 1_555
O4 N26 1_555 1_555
C134 N26 1_555 1_555
H100 C134 1_555 1_555
H101 C134 1_555 1_555
H102 C134 1_555 1_555
C135 H103 1_555 1_555
H104 C135 1_555 1_555
H105 C135 1_555 1_555
O5 N27 1_555 1_555
N27 C135 1_555 1_555
O6 N27 1_555 1_555
O7 N28 1_555 1_555
N28 C136 1_555 1_555
C136 H106 1_555 1_555
H107 C136 1_555 1_555
H108 C136 1_555 1_555
O8 N28 1_555 1_555
N29 O9 1_555 1_555
O10 N29 1_555 1_555
C137 N29 1_555 1_555
H109 C137 1_555 1_555
H110 C137 1_555 1_555
H111 C137 1_555 1_555
O11 N30 1_555 1_555
N30 O12 1_555 1_555
C138 N30 1_555 1_555
H112 C138 1_555 1_555
H113 C138 1_555 1_555
H114 C138 1_555 1_555
C4 C5 1_555 1_555
C5 C6 1_555 1_555
C11 C12 1_555 1_555
C15 C16 1_555 1_555
C17 C18 1_555 1_555
C21 C22 1_555 1_555
C26 C27 1_555 1_555
C27 C28 1_555 1_555
C33 C34 1_555 1_555
C37 C38 1_555 1_555
C39 C40 1_555 1_555
C43 C44 1_555 1_555
C48 C49 1_555 1_555
C49 C50 1_555 1_555
C55 C56 1_555 1_555
C58 C59 1_555 1_555
C59 C60 1_555 1_555
C61 C62 1_555 1_555
C65 C66 1_555 1_555
C70 C71 1_555 1_555
C71 C72 1_555 1_555
C77 C78 1_555 1_555
C81 C82 1_555 1_555
C83 C84 1_555 1_555
C87 C88 1_555 1_555
C92 C93 1_555 1_555
C93 C94 1_555 1_555
C99 C100 1_555 1_555
C102 C103 1_555 1_555
C103 C104 1_555 1_555
C105 C106 1_555 1_555
C109 C110 1_555 1_555
C114 C115 1_555 1_555
C115 C116 1_555 1_555
C121 C122 1_555 1_555
C124 C125 1_555 1_555
C125 C126 1_555 1_555
C127 C128 1_555 1_555
C131 C132 1_555 1_555

#END
