
#######################################################################
#
#                 Cambridge Crystallographic Data Centre
#                                CCDC 
#
#######################################################################
#
# If this CIF has been generated from an entry in the Cambridge 
# Structural Database, then it will include bibliographic, chemical, 
# crystal, experimental, refinement or atomic coordinate data resulting 
# from the CCDC's data processing and validation procedures.
#
#######################################################################

data_IMOVUD
_chemical_formula_moiety         'C44 H28 I4 N4 O8 Zn2,C1 H2 Cl2'
_chemical_name_systematic        
'tetraiodo-bis(\m-3-(((pyridin-4-yl)carbonyl)oxy)-2-naphthyl isonicotinate)-di-zinc dichloromethane solvate'
_symmetry_cell_setting           monoclinic
_symmetry_space_group_name_H-M   'P 21/c'
_symmetry_Int_Tables_number      14
_space_group_name_Hall           '-P 2ybc'
loop_
_symmetry_equiv_pos_site_id
_symmetry_equiv_pos_as_xyz
1 x,y,z
2 -x,1/2+y,1/2-z
3 -x,-y,-z
4 x,1/2-y,1/2+z
_cell_length_a                   8.9460(2)
_cell_length_b                   9.9120(2)
_cell_length_c                   27.6572(6)
_cell_angle_alpha                90
_cell_angle_beta                 90.7590(10)
_cell_angle_gamma                90
_cell_volume                     2452.22
_exptl_crystal_colour            colorless
_exptl_crystal_description       block
_cell_formula_units_Z            2
loop_
_atom_site_label
_atom_site_type_symbol
_atom_site_fract_x
_atom_site_fract_y
_atom_site_fract_z
Cl1 Cl 0.1324(3) 1.0170(3) 0.02983(12)
C23 C 0.0401(14) 1.0310(13) -0.0205(3)
H15 H 0.1002 0.9836 -0.0450
H16 H 0.0432 1.1279 -0.0291
Cl1B Cl -0.1324(3) 0.9830(3) -0.02983(12)
C23B C -0.0401(14) 0.9690(13) 0.0205(3)
H15B H -0.1002 1.0164 0.0450
H16B H -0.0432 0.8721 0.0291
Zn1 Zn -0.24201(5) 0.55870(5) 0.08372(2)
I1 I -0.42519(3) 0.54752(3) 0.15292(2)
I2 I -0.11533(4) 0.34393(3) 0.05510(2)
O1 O 0.2254(4) 1.0466(4) 0.19271(19)
O2 O 0.3929(3) 0.9046(3) 0.16140(13)
O3 O 0.6257(4) 1.0290(4) 0.08192(14)
O4 O 0.4962(3) 1.1586(3) 0.13366(12)
N1 N -0.0785(4) 0.6964(4) 0.10415(15)
N2 N 0.3454(4) 1.3464(4) -0.02585(15)
C1 C 0.0678(5) 0.6681(5) 0.10013(19)
H1 H 0.0956 0.5896 0.0827
C2 C 0.1782(5) 0.7464(5) 0.11986(19)
H2 H 0.2800 0.7211 0.1168
C3 C 0.1407(5) 0.8628(4) 0.14438(19)
C4 C -0.0091(5) 0.8950(5) 0.1480(2)
H3 H -0.0389 0.9749 0.1642
C5 C -0.1143(5) 0.8105(5) 0.1280(2)
H4 H -0.2169 0.8332 0.1310
C6 C 0.2543(5) 0.9494(5) 0.1695(2)
C7 C 0.5117(5) 0.9668(4) 0.18746(18)
C8 C 0.5778(5) 0.8984(5) 0.22475(18)
H5 H 0.5379 0.8148 0.2353
C9 C 0.7066(5) 0.9533(5) 0.24756(18)
C10 C 0.7835(6) 0.8815(6) 0.2844(2)
H6 H 0.7447 0.7986 0.2961
C11 C 0.9132(7) 0.9319(7) 0.3029(2)
H7 H 0.9655 0.8826 0.3273
C12 C 0.9715(6) 1.0539(7) 0.2872(2)
H8 H 1.0638 1.0854 0.3003
C13 C 0.8968(6) 1.1292(6) 0.2529(2)
H9 H 0.9352 1.2142 0.2432
C14 C 0.7615(5) 1.0789(5) 0.23220(17)
C15 C 0.6889(5) 1.1478(5) 0.19442(18)
H10 H 0.7247 1.2334 0.1843
C16 C 0.5662(5) 1.0917(5) 0.17210(17)
C17 C 0.5417(5) 1.1205(5) 0.08898(19)
C18 C 0.3065(5) 1.3716(5) 0.02000(19)
H11 H 0.2347 1.4401 0.0259
C19 C 0.3666(5) 1.3022(5) 0.05885(19)
H12 H 0.3356 1.3218 0.0908
C20 C 0.4730(5) 1.2032(5) 0.05052(18)
C21 C 0.5150(5) 1.1800(5) 0.0036(2)
H13 H 0.5891 1.1142 -0.0032
C22 C 0.4491(5) 1.2529(5) -0.03372(19)
H14 H 0.4788 1.2356 -0.0660
Zn1B Zn 0.24201(5) 1.44130(5) -0.08372(2)
I1B I 0.42519(3) 1.45248(3) -0.15292(2)
I2B I 0.11533(4) 1.65607(3) -0.05510(2)
O1B O -0.2254(4) 0.9534(4) -0.19271(19)
O2B O -0.3929(3) 1.0954(3) -0.16140(13)
O3B O -0.6257(4) 0.9710(4) -0.08192(14)
O4B O -0.4962(3) 0.8414(3) -0.13366(12)
N1B N 0.0785(4) 1.3036(4) -0.10415(15)
N2B N -0.3454(4) 0.6536(4) 0.02585(15)
C1B C -0.0678(5) 1.3319(5) -0.10013(19)
H1B H -0.0956 1.4104 -0.0827
C2B C -0.1782(5) 1.2536(5) -0.11986(19)
H2B H -0.2800 1.2789 -0.1168
C3B C -0.1407(5) 1.1372(4) -0.14438(19)
C4B C 0.0091(5) 1.1050(5) -0.1480(2)
H3B H 0.0389 1.0251 -0.1642
C5B C 0.1143(5) 1.1895(5) -0.1280(2)
H4B H 0.2169 1.1668 -0.1310
C6B C -0.2543(5) 1.0506(5) -0.1695(2)
C7B C -0.5117(5) 1.0332(4) -0.18746(18)
C8B C -0.5778(5) 1.1016(5) -0.22475(18)
H5B H -0.5379 1.1852 -0.2353
C9B C -0.7066(5) 1.0467(5) -0.24756(18)
C10B C -0.7835(6) 1.1185(6) -0.2844(2)
H6B H -0.7447 1.2014 -0.2961
C11B C -0.9132(7) 1.0681(7) -0.3029(2)
H7B H -0.9655 1.1174 -0.3273
C12B C -0.9715(6) 0.9461(7) -0.2872(2)
H8B H -1.0638 0.9146 -0.3003
C13B C -0.8968(6) 0.8708(6) -0.2529(2)
H9B H -0.9352 0.7858 -0.2432
C14B C -0.7615(5) 0.9211(5) -0.23220(17)
C15B C -0.6889(5) 0.8522(5) -0.19442(18)
H10B H -0.7247 0.7666 -0.1843
C16B C -0.5662(5) 0.9083(5) -0.17210(17)
C17B C -0.5417(5) 0.8795(5) -0.08898(19)
C18B C -0.3065(5) 0.6284(5) -0.02000(19)
H11B H -0.2347 0.5599 -0.0259
C19B C -0.3666(5) 0.6978(5) -0.05885(19)
H12B H -0.3356 0.6782 -0.0908
C20B C -0.4730(5) 0.7968(5) -0.05052(18)
C21B C -0.5150(5) 0.8200(5) -0.0036(2)
H13B H -0.5891 0.8858 0.0032
C22B C -0.4491(5) 0.7471(5) 0.03372(19)
H14B H -0.4788 0.7644 0.0660
loop_
_geom_bond_atom_site_label_1
_geom_bond_atom_site_label_2
_geom_bond_site_symmetry_1
_geom_bond_site_symmetry_2
Zn1 I1 1_555 1_555
I2 Zn1 1_555 1_555
O1 C6 1_555 1_555
O2 C6 1_555 1_555
O3 C17 1_555 1_555
O4 C16 1_555 1_555
N1 Zn1 1_555 1_555
N2 C18 1_555 1_555
C1 N1 1_555 1_555
H1 C1 1_555 1_555
C2 C1 1_555 1_555
H2 C2 1_555 1_555
C3 C2 1_555 1_555
C4 C3 1_555 1_555
H3 C4 1_555 1_555
C5 N1 1_555 1_555
H4 C5 1_555 1_555
C6 C3 1_555 1_555
C7 O2 1_555 1_555
C8 C7 1_555 1_555
H5 C8 1_555 1_555
C9 C8 1_555 1_555
C10 C9 1_555 1_555
H6 C10 1_555 1_555
C11 C10 1_555 1_555
H7 C11 1_555 1_555
C12 C11 1_555 1_555
H8 C12 1_555 1_555
C13 C12 1_555 1_555
H9 C13 1_555 1_555
C14 C9 1_555 1_555
C15 C14 1_555 1_555
H10 C15 1_555 1_555
C16 C7 1_555 1_555
C17 O4 1_555 1_555
C18 H11 1_555 1_555
C19 C18 1_555 1_555
H12 C19 1_555 1_555
C20 C17 1_555 1_555
C21 C20 1_555 1_555
H13 C21 1_555 1_555
C22 N2 1_555 1_555
H14 C22 1_555 1_555
Cl1 C23 1_555 1_555
C23 H15 1_555 1_555
H16 C23 1_555 1_555
Zn1B N2 1_555 1_555
I1B Zn1B 1_555 1_555
I2B Zn1B 1_555 1_555
O1B C6B 1_555 1_555
O2B C6B 1_555 1_555
O3B C17B 1_555 1_555
O4B C16B 1_555 1_555
N1B Zn1B 1_555 1_555
N2B Zn1 1_555 1_555
C1B N1B 1_555 1_555
H1B C1B 1_555 1_555
C2B C1B 1_555 1_555
H2B C2B 1_555 1_555
C3B C2B 1_555 1_555
C4B C3B 1_555 1_555
H3B C4B 1_555 1_555
C5B N1B 1_555 1_555
H4B C5B 1_555 1_555
C6B C3B 1_555 1_555
C7B O2B 1_555 1_555
C8B C7B 1_555 1_555
H5B C8B 1_555 1_555
C9B C8B 1_555 1_555
C10B C9B 1_555 1_555
H6B C10B 1_555 1_555
C11B C10B 1_555 1_555
H7B C11B 1_555 1_555
C12B C11B 1_555 1_555
H8B C12B 1_555 1_555
C13B C12B 1_555 1_555
H9B C13B 1_555 1_555
C14B C9B 1_555 1_555
C15B C14B 1_555 1_555
H10B C15B 1_555 1_555
C16B C7B 1_555 1_555
C17B O4B 1_555 1_555
C18B N2B 1_555 1_555
H11B C18B 1_555 1_555
C19B C18B 1_555 1_555
H12B C19B 1_555 1_555
C20B C17B 1_555 1_555
C21B C20B 1_555 1_555
H13B C21B 1_555 1_555
C22B N2B 1_555 1_555
H14B C22B 1_555 1_555
Cl1B C23 1_555 1_555
C23B Cl1 1_555 1_555
H15B C23B 1_555 1_555
H16B C23B 1_555 1_555
C4 C5 1_555 1_555
C13 C14 1_555 1_555
C15 C16 1_555 1_555
C19 C20 1_555 1_555
C21 C22 1_555 1_555
C23 C23B 1_555 1_555
C4B C5B 1_555 1_555
C13B C14B 1_555 1_555
C15B C16B 1_555 1_555
C19B C20B 1_555 1_555
C21B C22B 1_555 1_555
Cl1B C23B 1_555 1_555

#END
