
#######################################################################
#
#                 Cambridge Crystallographic Data Centre
#                                CCDC 
#
#######################################################################
#
# If this CIF has been generated from an entry in the Cambridge 
# Structural Database, then it will include bibliographic, chemical, 
# crystal, experimental, refinement or atomic coordinate data resulting 
# from the CCDC's data processing and validation procedures.
#
#######################################################################

data_IMOWAK
_chemical_formula_moiety         'C44 H28 I4 N4 O8 Zn2,3.5(C1 H2 Br2)'
_chemical_name_systematic        
'tetraiodo-bis(\m-3-(((pyridin-4-yl)carbonyl)oxy)-2-naphthyl isonicotinate)-di-zinc dibromomethane solvate'
_symmetry_cell_setting           triclinic
_symmetry_space_group_name_H-M   'P -1'
_symmetry_Int_Tables_number      2
_space_group_name_Hall           '-P 1'
loop_
_symmetry_equiv_pos_site_id
_symmetry_equiv_pos_as_xyz
1 x,y,z
2 -x,-y,-z
_cell_length_a                   10.8620(3)
_cell_length_b                   15.1671(4)
_cell_length_c                   20.1107(5)
_cell_angle_alpha                110.5960(10)
_cell_angle_beta                 105.0200(10)
_cell_angle_gamma                91.9540(10)
_cell_volume                     2966.53
_exptl_crystal_colour            yellow
_exptl_crystal_description       block
_cell_formula_units_Z            2
loop_
_atom_site_label
_atom_site_type_symbol
_atom_site_fract_x
_atom_site_fract_y
_atom_site_fract_z
Zn1 Zn 0.43415(11) 0.63956(8) 0.15416(6)
I1 I 0.65051(7) 0.62476(5) 0.12690(4)
I2 I 0.41703(7) 0.75395(5) 0.27785(4)
O1 O 0.2380(8) 0.1539(5) 0.0551(4)
O2 O 0.1826(7) 0.2167(4) 0.1613(4)
O3 O -0.1144(9) 0.2495(6) 0.1524(4)
O4 O -0.0529(7) 0.1496(5) 0.0580(4)
N1 N 0.3615(8) 0.5053(6) 0.1409(5)
N2 N -0.3129(8) 0.3321(5) -0.0696(4)
C1 C 0.3504(12) 0.4335(7) 0.0759(6)
H1 H 0.3714 0.4473 0.0373
C2 C 0.3099(12) 0.3414(7) 0.0638(6)
H2 H 0.3064 0.2915 0.0184
C3 C 0.2736(9) 0.3224(7) 0.1200(5)
C4 C 0.2796(10) 0.3939(7) 0.1843(5)
H3 H 0.2527 0.3823 0.2221
C5 C 0.3264(10) 0.4859(7) 0.1936(6)
H4 H 0.3336 0.5365 0.2393
C6 C 0.2318(11) 0.2199(7) 0.1067(5)
C7 C 0.1198(10) 0.1267(7) 0.1497(6)
C8 C 0.1753(10) 0.0770(7) 0.1909(5)
H5 H 0.2597 0.0988 0.2241
C9 C 0.1050(10) -0.0083(7) 0.1838(5)
C10 C 0.1555(10) -0.0618(7) 0.2274(6)
H6 H 0.2398 -0.0422 0.2610
C11 C 0.0830(12) -0.1420(8) 0.2213(6)
H7 H 0.1163 -0.1760 0.2521
C12 C -0.0415(12) -0.1745(7) 0.1692(7)
H8 H -0.0900 -0.2310 0.1642
C13 C -0.0894(12) -0.1253(7) 0.1275(6)
H9 H -0.1729 -0.1468 0.0932
C14 C -0.0164(10) -0.0389(7) 0.1332(6)
C15 C -0.0707(11) 0.0144(7) 0.0913(6)
H10 H -0.1544 -0.0062 0.0572
C16 C -0.0010(10) 0.0962(6) 0.1005(5)
C17 C -0.1149(11) 0.2218(7) 0.0883(6)
C18 C -0.1767(10) 0.2644(7) 0.0348(6)
C19 C -0.2656(11) 0.3238(8) 0.0515(6)
H11 H -0.2814 0.3422 0.0985
C20 C -0.3312(12) 0.3559(8) -0.0016(6)
H12 H -0.3930 0.3971 0.0099
C21 C -0.2235(10) 0.2779(7) -0.0829(5)
H13 H -0.2068 0.2621 -0.1295
C22 C -0.1516(11) 0.2423(7) -0.0320(6)
H14 H -0.0871 0.2038 -0.0434
Zn1A Zn -0.43415(11) 0.36044(8) -0.15416(6)
I1A I -0.65051(7) 0.37524(5) -0.12690(4)
I2A I -0.41703(7) 0.24605(5) -0.27785(4)
O1A O -0.2380(8) 0.8461(5) -0.0551(4)
O2A O -0.1826(7) 0.7833(4) -0.1613(4)
O3A O 0.1144(9) 0.7505(6) -0.1524(4)
O4A O 0.0529(7) 0.8504(5) -0.0580(4)
N1A N -0.3615(8) 0.4947(6) -0.1409(5)
N2A N 0.3129(8) 0.6679(5) 0.0696(4)
C1A C -0.3504(12) 0.5665(7) -0.0759(6)
H1A H -0.3714 0.5527 -0.0373
C2A C -0.3099(12) 0.6586(7) -0.0638(6)
H2A H -0.3064 0.7085 -0.0184
C3A C -0.2736(9) 0.6776(7) -0.1200(5)
C4A C -0.2796(10) 0.6061(7) -0.1843(5)
H3A H -0.2527 0.6177 -0.2221
C5A C -0.3264(10) 0.5141(7) -0.1936(6)
H4A H -0.3336 0.4635 -0.2393
C6A C -0.2318(11) 0.7801(7) -0.1067(5)
C7A C -0.1198(10) 0.8733(7) -0.1497(6)
C8A C -0.1753(10) 0.9230(7) -0.1909(5)
H5A H -0.2597 0.9012 -0.2241
C9A C -0.1050(10) 1.0083(7) -0.1838(5)
C10A C -0.1555(10) 1.0618(7) -0.2274(6)
H6A H -0.2398 1.0422 -0.2610
C11A C -0.0830(12) 1.1420(8) -0.2213(6)
H7A H -0.1163 1.1760 -0.2521
C12A C 0.0415(12) 1.1745(7) -0.1692(7)
H8A H 0.0900 1.2310 -0.1642
C13A C 0.0894(12) 1.1253(7) -0.1275(6)
H9A H 0.1729 1.1468 -0.0932
C14A C 0.0164(10) 1.0389(7) -0.1332(6)
C15A C 0.0707(11) 0.9856(7) -0.0913(6)
H10A H 0.1544 1.0062 -0.0572
C16A C 0.0010(10) 0.9038(6) -0.1005(5)
C17A C 0.1149(11) 0.7782(7) -0.0883(6)
C18A C 0.1767(10) 0.7356(7) -0.0348(6)
C19A C 0.2656(11) 0.6762(8) -0.0515(6)
H11A H 0.2814 0.6578 -0.0985
C20A C 0.3312(12) 0.6441(8) 0.0016(6)
H12A H 0.3930 0.6029 -0.0099
C21A C 0.2235(10) 0.7221(7) 0.0829(5)
H13A H 0.2068 0.7379 0.1295
C22A C 0.1516(11) 0.7577(7) 0.0320(6)
H14A H 0.0871 0.7962 0.0434
Zn2 Zn 0.55688(11) 0.35790(8) 0.34359(6)
I3 I 0.56822(7) 0.24553(5) 0.21840(4)
I4 I 0.34689(7) 0.36783(5) 0.37875(4)
O5 O 0.7443(8) 0.8460(5) 0.4421(4)
O6 O 0.8121(7) 0.7822(5) 0.3401(4)
O7 O 1.0889(8) 0.7391(6) 0.3484(4)
O8 O 1.0483(7) 0.8514(5) 0.4456(4)
N3 N 0.6227(8) 0.4938(5) 0.3574(4)
N4 N 1.3111(8) 0.6694(6) 0.5738(4)
C23 C 0.6847(11) 0.5127(7) 0.3122(6)
H15 H 0.6965 0.4607 0.2720
C24 C 0.7310(10) 0.6027(7) 0.3216(6)
H16 H 0.7756 0.6130 0.2895
C25 C 0.7111(9) 0.6777(7) 0.3787(5)
C26 C 0.6501(11) 0.6616(7) 0.4262(6)
H17 H 0.6381 0.7129 0.4667
C27 C 0.6063(12) 0.5672(8) 0.4131(6)
H18 H 0.5633 0.5553 0.4453
C28 C 0.7575(10) 0.7796(7) 0.3932(6)
C29 C 0.8729(10) 0.8716(6) 0.3513(5)
C30 C 0.8196(10) 0.9198(7) 0.3098(5)
H19 H 0.7357 0.8972 0.2761
C31 C 0.8891(9) 1.0065(7) 0.3160(5)
C32 C 0.8375(11) 1.0587(7) 0.2728(6)
H20 H 0.7531 1.0386 0.2393
C33 C 0.9087(11) 1.1385(8) 0.2788(6)
H21 H 0.8750 1.1727 0.2482
C34 C 1.0306(13) 1.1698(8) 0.3297(7)
H22 H 1.0791 1.2257 0.3337
C35 C 1.0811(11) 1.1224(7) 0.3734(7)
H23 H 1.1641 1.1457 0.4081
C36 C 1.0123(10) 1.0383(7) 0.3685(6)
C37 C 1.0658(10) 0.9854(7) 0.4102(5)
H24 H 1.1499 1.0061 0.4439
C38 C 0.9969(11) 0.9036(7) 0.4022(5)
C39 C 1.0978(11) 0.7734(8) 0.4147(6)
C40 C 1.2365(12) 0.7376(9) 0.5931(6)
H25 H 1.2316 0.7617 0.6426
C41 C 1.1668(12) 0.7735(9) 0.5426(6)
H26 H 1.1211 0.8254 0.5589
C42 C 1.1632(11) 0.7338(8) 0.4682(6)
C43 C 1.2333(12) 0.6596(8) 0.4483(6)
H27 H 1.2305 0.6285 0.3977
C44 C 1.3068(11) 0.6307(8) 0.5011(6)
H28 H 1.3570 0.5813 0.4862
Zn2A Zn 1.44312(11) 0.64210(8) 0.65641(6)
I3A I 1.43178(7) 0.75447(5) 0.78160(4)
I4A I 1.65311(7) 0.63217(5) 0.62125(4)
O5A O 1.2557(8) 0.1540(5) 0.5579(4)
O6A O 1.1879(7) 0.2178(5) 0.6599(4)
O7A O 0.9111(8) 0.2609(6) 0.6516(4)
O8A O 0.9517(7) 0.1486(5) 0.5544(4)
N3A N 1.3773(8) 0.5062(5) 0.6426(4)
N4A N 0.6889(8) 0.3306(6) 0.4262(4)
C23A C 1.3153(11) 0.4873(7) 0.6878(6)
H15A H 1.3035 0.5393 0.7280
C24A C 1.2690(10) 0.3973(7) 0.6784(6)
H16A H 1.2244 0.3870 0.7105
C25A C 1.2889(9) 0.3223(7) 0.6213(5)
C26A C 1.3499(11) 0.3384(7) 0.5738(6)
H17A H 1.3619 0.2871 0.5333
C27A C 1.3937(12) 0.4328(8) 0.5869(6)
H18A H 1.4367 0.4447 0.5547
C28A C 1.2425(10) 0.2204(7) 0.6068(6)
C29A C 1.1271(10) 0.1284(6) 0.6487(5)
C30A C 1.1804(10) 0.0802(7) 0.6902(5)
H19A H 1.2643 0.1028 0.7239
C31A C 1.1109(9) -0.0065(7) 0.6840(5)
C32A C 1.1625(11) -0.0587(7) 0.7272(6)
H20A H 1.2469 -0.0386 0.7607
C33A C 1.0913(11) -0.1385(8) 0.7212(6)
H21A H 1.1250 -0.1727 0.7518
C34A C 0.9694(13) -0.1698(8) 0.6703(7)
H22A H 0.9209 -0.2257 0.6663
C35A C 0.9189(11) -0.1224(7) 0.6266(7)
H23A H 0.8359 -0.1457 0.5919
C36A C 0.9877(10) -0.0383(7) 0.6315(6)
C37A C 0.9342(10) 0.0146(7) 0.5898(5)
H24A H 0.8501 -0.0061 0.5561
C38A C 1.0031(11) 0.0964(7) 0.5978(5)
C39A C 0.9022(11) 0.2266(8) 0.5853(6)
C40A C 0.7635(12) 0.2624(9) 0.4069(6)
H25A H 0.7684 0.2383 0.3574
C41A C 0.8332(12) 0.2265(9) 0.4574(6)
H26A H 0.8789 0.1746 0.4411
C42A C 0.8368(11) 0.2662(8) 0.5318(6)
C43A C 0.7667(12) 0.3404(8) 0.5517(6)
H27A H 0.7695 0.3715 0.6023
C44A C 0.6932(11) 0.3693(8) 0.4989(6)
H28A H 0.6430 0.4187 0.5138
Br1 Br 0.53567(16) 0.07661(12) 0.83108(10)
Br2 Br 0.4905(4) 0.11289(14) 0.98641(16)
C45 C 0.557(2) 0.0378(12) 0.9098(11)
H29 H 0.6506 0.0386 0.9313
H30 H 0.5155 -0.0287 0.8910
Br3 Br 0.6063(2) 0.10955(16) 0.53168(13)
Br4 Br 0.4924(4) 0.0990(3) 0.3710(2)
C46 C 0.610(2) 0.0340(12) 0.4327(10)
H31 H 0.5747 -0.0334 0.4180
H32 H 0.6982 0.0375 0.4279
Br5 Br 0.00291(14) 0.50841(10) -0.23457(9)
Br6 Br -0.00434(17) 0.46566(12) -0.09245(8)
C47 C -0.0171(14) 0.4149(9) -0.1920(7)
H33 H -0.1023 0.3756 -0.2191
H34 H 0.0494 0.3724 -0.1993
loop_
_geom_bond_atom_site_label_1
_geom_bond_atom_site_label_2
_geom_bond_site_symmetry_1
_geom_bond_site_symmetry_2
Zn1 I1 1_555 1_555
I2 Zn1 1_555 1_555
O1 C6 1_555 1_555
O2 C6 1_555 1_555
O3 C17 1_555 1_555
O4 C16 1_555 1_555
N1 Zn1 1_555 1_555
N2 C20 1_555 1_555
C1 N1 1_555 1_555
H1 C1 1_555 1_555
C2 C1 1_555 1_555
H2 C2 1_555 1_555
C3 C2 1_555 1_555
C4 C3 1_555 1_555
H3 C4 1_555 1_555
C5 N1 1_555 1_555
H4 C5 1_555 1_555
C6 C3 1_555 1_555
C7 O2 1_555 1_555
C8 C7 1_555 1_555
H5 C8 1_555 1_555
C9 C8 1_555 1_555
C10 C9 1_555 1_555
H6 C10 1_555 1_555
C11 C10 1_555 1_555
H7 C11 1_555 1_555
C12 C11 1_555 1_555
H8 C12 1_555 1_555
C13 C12 1_555 1_555
H9 C13 1_555 1_555
C14 C9 1_555 1_555
C15 C14 1_555 1_555
H10 C15 1_555 1_555
C16 C7 1_555 1_555
C17 O4 1_555 1_555
C18 C17 1_555 1_555
C19 C18 1_555 1_555
H11 C19 1_555 1_555
C20 C19 1_555 1_555
H12 C20 1_555 1_555
C21 N2 1_555 1_555
H13 C21 1_555 1_555
C22 C18 1_555 1_555
H14 C22 1_555 1_555
Zn2 I3 1_555 1_555
I4 Zn2 1_555 1_555
O5 C28 1_555 1_555
O6 C28 1_555 1_555
O7 C39 1_555 1_555
O8 C38 1_555 1_555
N3 Zn2 1_555 1_555
N4 C40 1_555 1_555
C23 N3 1_555 1_555
H15 C23 1_555 1_555
C24 C23 1_555 1_555
H16 C24 1_555 1_555
C25 C24 1_555 1_555
C26 C25 1_555 1_555
H17 C26 1_555 1_555
C27 N3 1_555 1_555
H18 C27 1_555 1_555
C28 C25 1_555 1_555
C29 O6 1_555 1_555
C30 C29 1_555 1_555
H19 C30 1_555 1_555
C31 C30 1_555 1_555
C32 C31 1_555 1_555
H20 C32 1_555 1_555
C33 C32 1_555 1_555
H21 C33 1_555 1_555
C34 C33 1_555 1_555
H22 C34 1_555 1_555
C35 C34 1_555 1_555
H23 C35 1_555 1_555
C36 C31 1_555 1_555
C37 C36 1_555 1_555
H24 C37 1_555 1_555
C38 C29 1_555 1_555
C39 O8 1_555 1_555
C40 H25 1_555 1_555
C41 C40 1_555 1_555
H26 C41 1_555 1_555
C42 C39 1_555 1_555
C43 C42 1_555 1_555
H27 C43 1_555 1_555
C44 N4 1_555 1_555
H28 C44 1_555 1_555
Br1 C45 1_555 1_555
Br2 C45 1_555 1_555
C45 H29 1_555 1_555
H30 C45 1_555 1_555
Br3 C46 1_555 1_555
Br4 C46 1_555 1_555
C46 H31 1_555 1_555
H32 C46 1_555 1_555
Br5 C47 1_555 1_555
Br6 C47 1_555 1_555
C47 H33 1_555 1_555
H34 C47 1_555 1_555
Zn1A N2 1_555 1_555
I1A Zn1A 1_555 1_555
I2A Zn1A 1_555 1_555
O1A C6A 1_555 1_555
O2A C6A 1_555 1_555
O3A C17A 1_555 1_555
O4A C16A 1_555 1_555
N1A Zn1A 1_555 1_555
N2A Zn1 1_555 1_555
C1A N1A 1_555 1_555
H1A C1A 1_555 1_555
C2A C1A 1_555 1_555
H2A C2A 1_555 1_555
C3A C2A 1_555 1_555
C4A C3A 1_555 1_555
H3A C4A 1_555 1_555
C5A N1A 1_555 1_555
H4A C5A 1_555 1_555
C6A C3A 1_555 1_555
C7A O2A 1_555 1_555
C8A C7A 1_555 1_555
H5A C8A 1_555 1_555
C9A C8A 1_555 1_555
C10A C9A 1_555 1_555
H6A C10A 1_555 1_555
C11A C10A 1_555 1_555
H7A C11A 1_555 1_555
C12A C11A 1_555 1_555
H8A C12A 1_555 1_555
C13A C12A 1_555 1_555
H9A C13A 1_555 1_555
C14A C9A 1_555 1_555
C15A C14A 1_555 1_555
H10A C15A 1_555 1_555
C16A C7A 1_555 1_555
C17A O4A 1_555 1_555
C18A C17A 1_555 1_555
C19A C18A 1_555 1_555
H11A C19A 1_555 1_555
C20A N2A 1_555 1_555
H12A C20A 1_555 1_555
C21A N2A 1_555 1_555
H13A C21A 1_555 1_555
C22A C18A 1_555 1_555
H14A C22A 1_555 1_555
Zn2A N4 1_555 1_555
I3A Zn2A 1_555 1_555
I4A Zn2A 1_555 1_555
O5A C28A 1_555 1_555
O6A C28A 1_555 1_555
O7A C39A 1_555 1_555
O8A C38A 1_555 1_555
N3A Zn2A 1_555 1_555
N4A Zn2 1_555 1_555
C23A N3A 1_555 1_555
H15A C23A 1_555 1_555
C24A C23A 1_555 1_555
H16A C24A 1_555 1_555
C25A C24A 1_555 1_555
C26A C25A 1_555 1_555
H17A C26A 1_555 1_555
C27A N3A 1_555 1_555
H18A C27A 1_555 1_555
C28A C25A 1_555 1_555
C29A O6A 1_555 1_555
C30A C29A 1_555 1_555
H19A C30A 1_555 1_555
C31A C30A 1_555 1_555
C32A C31A 1_555 1_555
H20A C32A 1_555 1_555
C33A C32A 1_555 1_555
H21A C33A 1_555 1_555
C34A C33A 1_555 1_555
H22A C34A 1_555 1_555
C35A C34A 1_555 1_555
H23A C35A 1_555 1_555
C36A C31A 1_555 1_555
C37A C36A 1_555 1_555
H24A C37A 1_555 1_555
C38A C29A 1_555 1_555
C39A O8A 1_555 1_555
C40A N4A 1_555 1_555
H25A C40A 1_555 1_555
C41A C40A 1_555 1_555
H26A C41A 1_555 1_555
C42A C39A 1_555 1_555
C43A C42A 1_555 1_555
H27A C43A 1_555 1_555
C44A N4A 1_555 1_555
H28A C44A 1_555 1_555
C4 C5 1_555 1_555
C13 C14 1_555 1_555
C15 C16 1_555 1_555
C21 C22 1_555 1_555
C26 C27 1_555 1_555
C35 C36 1_555 1_555
C37 C38 1_555 1_555
C41 C42 1_555 1_555
C43 C44 1_555 1_555
C4A C5A 1_555 1_555
C13A C14A 1_555 1_555
C15A C16A 1_555 1_555
C19A C20A 1_555 1_555
C21A C22A 1_555 1_555
C26A C27A 1_555 1_555
C35A C36A 1_555 1_555
C37A C38A 1_555 1_555
C41A C42A 1_555 1_555
C43A C44A 1_555 1_555

#END
