
#######################################################################
#
#                 Cambridge Crystallographic Data Centre
#                                CCDC 
#
#######################################################################
#
# If this CIF has been generated from an entry in the Cambridge 
# Structural Database, then it will include bibliographic, chemical, 
# crystal, experimental, refinement or atomic coordinate data resulting 
# from the CCDC's data processing and validation procedures.
#
#######################################################################

data_ITIFIC
_chemical_formula_moiety         'C66 H69 N15 Ni3 S12,3(C3 H7 N1 O1),H2 O1'
_chemical_name_systematic        
'tris(\m~2~-dimethyl ((9-butyl-9H-carbazole-3,6-diyl)dimethylylidene)bis(carbonodithiohydrazonate))-tri-nickel(ii) N,N-dimethylformamide unkown solvate monohydrate'
_symmetry_cell_setting           triclinic
_symmetry_space_group_name_H-M   'P -1'
_symmetry_Int_Tables_number      2
_space_group_name_Hall           '-P 1'
loop_
_symmetry_equiv_pos_site_id
_symmetry_equiv_pos_as_xyz
1 x,y,z
2 -x,-y,-z
_cell_length_a                   18.28(2)
_cell_length_b                   18.49(2)
_cell_length_c                   19.33(2)
_cell_angle_alpha                112.371(12)
_cell_angle_beta                 114.135(11)
_cell_angle_gamma                95.882(11)
_cell_volume                     5249.42
_exptl_crystal_colour            'dark blue'
_exptl_crystal_description       BLOCK
_cell_formula_units_Z            2
loop_
_atom_site_label
_atom_site_type_symbol
_atom_site_fract_x
_atom_site_fract_y
_atom_site_fract_z
Ni1 Ni 0.62065(6) 0.48273(6) 0.23041(6)
Ni2 Ni 0.12102(6) -0.18503(7) -0.23309(6)
Ni3 Ni 0.34694(6) 0.10873(6) 0.52582(6)
S1 S 0.10693(14) -0.31416(14) -0.29117(15)
S2 S 0.19465(17) -0.40792(17) -0.20899(19)
S3 S 0.53327(13) 0.45118(13) 0.10100(12)
S4 S 0.39568(15) 0.28926(15) -0.02359(14)
S5 S 0.68283(13) 0.59958(13) 0.25119(12)
S6 S 0.80613(13) 0.74112(14) 0.42638(13)
S7 S 0.38709(15) 0.10572(14) 0.64445(14)
S8 S 0.45922(15) 0.24424(15) 0.81564(14)
S9 S 0.04556(13) -0.19018(15) -0.35324(13)
S10 S -0.03700(14) -0.06910(16) -0.38668(13)
S11 S 0.31467(16) -0.02207(14) 0.46240(14)
S12 S 0.23757(16) -0.13226(16) 0.28039(15)
N1 N 0.6105(3) 0.0140(4) 0.1796(4)
N2 N 0.2317(4) -0.2469(4) -0.1327(4)
N3 N 0.2129(3) -0.1778(3) -0.1382(3)
N4 N 0.5115(4) 0.3183(4) 0.1256(4)
N5 N 0.5802(3) 0.3689(3) 0.1962(3)
N6 N 0.6395(4) 0.5877(4) 0.6969(4)
N7 N 0.7246(3) 0.6082(3) 0.4047(3)
N8 N 0.6702(3) 0.5245(3) 0.3505(3)
N9 N 0.4338(4) 0.2642(4) 0.6796(3)
N10 N 0.4055(3) 0.2287(4) 0.5926(3)
N11 N 0.0413(3) 0.1884(4) 0.1199(3)
N12 N 0.0490(3) -0.0517(4) -0.2332(4)
N13 N 0.0980(3) -0.0852(3) -0.1815(3)
N14 N 0.2579(4) 0.0243(3) 0.3412(3)
N15 N 0.2828(3) 0.1012(4) 0.4162(3)
C1 C 0.5329(4) -0.0314(5) 0.1120(5)
C2 C 0.4865(5) -0.1167(4) 0.0632(4)
H1 H 0.5115 -0.1553 0.0742
C3 C 0.4066(4) -0.1407(5) 0.0016(4)
H2 H 0.3793 -0.1969 -0.0318
C4 C 0.3601(4) -0.0876(4) -0.0168(4)
C5 C 0.4088(3) -0.0022(5) 0.0272(4)
H3 H 0.3851 0.0353 0.0122
C6 C 0.4924(4) 0.0239(5) 0.0928(4)
C7 C 0.5507(4) 0.1074(4) 0.1510(4)
C8 C 0.5498(4) 0.1854(5) 0.1593(4)
H4 H 0.5021 0.1924 0.1229
C9 C 0.6191(4) 0.2516(4) 0.2211(4)
C10 C 0.6918(4) 0.2321(5) 0.2703(5)
H5 H 0.7404 0.2760 0.3118
C11 C 0.6966(4) 0.1524(5) 0.2617(4)
H6 H 0.7443 0.1420 0.2938
C12 C 0.6231(4) 0.0955(4) 0.2015(4)
C13 C 0.6688(5) -0.0240(6) 0.2158(6)
H7 H 0.6381 -0.0661 0.2208
H8 H 0.7099 0.0172 0.2736
C14 C 0.7169(4) -0.0631(5) 0.1721(5)
H9 H 0.6772 -0.1052 0.1143
H10 H 0.7501 -0.0217 0.1684
C15 C 0.7724(5) -0.0997(5) 0.2175(6)
H11 H 0.7392 -0.1384 0.2241
H12 H 0.8134 -0.0567 0.2744
C16 C 0.8190(6) -0.1437(6) 0.1743(7)
H13 H 0.8525 -0.1676 0.2071
H14 H 0.8549 -0.1052 0.1707
H15 H 0.7791 -0.1862 0.1177
C17 C 0.2749(4) -0.1127(5) -0.0858(4)
H16 H 0.2619 -0.0683 -0.0942
C18 C 0.1814(4) -0.3111(5) -0.2024(5)
C19 C 0.2698(6) -0.3834(5) -0.1068(6)
H17 H 0.2833 -0.4319 -0.1056
H18 H 0.2484 -0.3615 -0.0680
H19 H 0.3196 -0.3431 -0.0899
C20 C 0.6310(4) 0.3408(4) 0.2388(4)
H20 H 0.6812 0.3790 0.2861
C21 C 0.4833(4) 0.3502(4) 0.0773(4)
C22 C 0.3599(6) 0.3564(5) -0.0658(6)
H21 H 0.3118 0.3252 -0.1218
H22 H 0.4040 0.3850 -0.0694
H23 H 0.3445 0.3954 -0.0289
C23 C 0.6897(4) 0.6399(5) 0.6184(4)
H24 H 0.7173 0.6941 0.6609
C24 C 0.6865(5) 0.6086(6) 0.5353(5)
H25 H 0.7145 0.6455 0.5256
C25 C 0.6443(4) 0.5264(4) 0.4674(4)
C26 C 0.6337(6) 0.4927(5) 0.3825(5)
H26 H 0.5953 0.4404 0.3446
C27 C 0.5989(4) 0.4686(5) 0.4777(4)
H27 H 0.5695 0.4150 0.4343
C28 C 0.6002(4) 0.4971(4) 0.5603(5)
C29 C 0.6466(4) 0.5797(5) 0.6275(4)
C30 C 0.5634(5) 0.4528(5) 0.5915(4)
C31 C 0.5092(4) 0.3747(4) 0.5581(4)
H28 H 0.4907 0.3368 0.5016
C32 C 0.4825(5) 0.3522(5) 0.6058(5)
C33 C 0.5122(5) 0.4135(4) 0.6931(5)
H29 H 0.4996 0.3980 0.7284
C34 C 0.5584(5) 0.4939(6) 0.7265(5)
H30 H 0.5713 0.5345 0.7801
C35 C 0.5847(5) 0.5095(5) 0.6722(5)
C36 C 0.6771(5) 0.6635(5) 0.7789(5)
H31 H 0.7313 0.6937 0.7913
H32 H 0.6856 0.6501 0.8249
C37 C 0.6177(5) 0.7160(5) 0.7723(6)
H33 H 0.5704 0.6911 0.7752
H34 H 0.5957 0.7133 0.7161
C38 C 0.6550(6) 0.8099(7) 0.8415(7)
H35 H 0.6938 0.8391 0.8316
H36 H 0.6098 0.8343 0.8364
C39 C 0.6982(6) 0.8172(7) 0.9259(5)
H37 H 0.7223 0.8742 0.9674
H38 H 0.7421 0.7919 0.9303
H39 H 0.6591 0.7903 0.9364
C40 C 0.7341(4) 0.6437(4) 0.3607(4)
C41 C 0.7888(6) 0.7838(5) 0.3529(5)
H40 H 0.8262 0.8388 0.3832
H41 H 0.7316 0.7846 0.3284
H42 H 0.7995 0.7507 0.3081
C42 C 0.4305(4) 0.2668(4) 0.5622(4)
H43 H 0.4142 0.2376 0.5044
C43 C 0.4251(4) 0.2133(5) 0.7079(4)
C44 C 0.5184(5) 0.3509(5) 0.8654(5)
H44 H 0.5413 0.3743 0.9263
H45 H 0.4820 0.3800 0.8441
H46 H 0.5635 0.3552 0.8523
C45 C 0.0530(4) 0.1323(5) 0.0543(4)
C46 C 0.0166(4) 0.1163(5) -0.0311(4)
H47 H -0.0194 0.1440 -0.0517
C47 C 0.0369(5) 0.0569(4) -0.0837(5)
H48 H 0.0169 0.0469 -0.1401
C48 C 0.0864(5) 0.0117(4) -0.0542(5)
C49 C 0.1237(4) 0.0263(4) 0.0319(4)
H49 H 0.1568 -0.0043 0.0507
C50 C 0.1073(4) 0.0918(5) 0.0894(4)
C51 C 0.1306(4) 0.1232(4) 0.1786(3)
C52 C 0.1800(4) 0.1122(4) 0.2457(3)
H50 H 0.2066 0.0719 0.2373
C53 C 0.1912(4) 0.1580(4) 0.3237(4)
C54 C 0.1469(4) 0.2179(4) 0.3399(5)
H51 H 0.1544 0.2481 0.3946
C55 C 0.0934(4) 0.2293(4) 0.2725(4)
H52 H 0.0630 0.2663 0.2800
C56 C 0.0868(4) 0.1837(4) 0.1938(4)
C57 C -0.0173(5) 0.2395(4) 0.1055(6)
H53 H -0.0433 0.2473 0.1416
H54 H -0.0611 0.2141 0.0461
C58 C 0.0463(5) 0.3281(4) 0.1325(7)
H55 H 0.0944 0.3512 0.1894
H56 H 0.0653 0.3233 0.0913
C59 C -0.0228(4) 0.3803(5) 0.1283(7)
H57 H -0.0062 0.4262 0.1203
H58 H -0.0220 0.4011 0.1823
C60 C -0.1209(7) 0.3213(6) 0.0502(8)
H59 H -0.1491 0.2979 0.0726
H60 H -0.1185 0.2782 0.0045
H61 H -0.1513 0.3542 0.0289
C61 C 0.1107(4) -0.0533(4) -0.1034(4)
H62 H 0.1422 -0.0771 -0.0720
C62 C 0.0259(4) -0.0924(5) -0.3109(4)
C63 C -0.0596(5) 0.0165(6) -0.3236(5)
H63 H -0.0956 0.0361 -0.3599
H64 H -0.0079 0.0598 -0.2802
H65 H -0.0872 -0.0006 -0.2971
C64 C 0.2486(4) 0.1640(4) 0.4078(4)
H66 H 0.2625 0.2115 0.4572
C65 C 0.2687(4) -0.0328(4) 0.3569(5)
C66 C 0.1590(6) -0.1250(6) 0.1900(6)
H67 H 0.1337 -0.1778 0.1402
H68 H 0.1853 -0.0859 0.1792
H69 H 0.1163 -0.1074 0.2027
O1 O -0.0352(9) 0.2059(11) -0.2988(12)
N16 N -0.0937(4) 0.1368(6) -0.4434(6)
C68 C -0.1094(4) 0.1899(8) -0.3752(5)
H75 H -0.1559 0.2084 -0.3804
C69 C -0.0156(5) 0.1442(9) -0.4185(7)
H76 H -0.0095 0.1058 -0.4645
H77 H 0.0075 0.1332 -0.3705
H78 H 0.0138 0.1991 -0.4019
C70 C -0.1518(7) 0.1190(13) -0.5199(5)
H79 H -0.1403 0.0815 -0.5617
H80 H -0.1523 0.1683 -0.5255
H81 H -0.2057 0.0939 -0.5288
N17 N 0.5248(5) 1.1368(6) 0.3859(5)
O2 O 0.4252(4) 1.1972(5) 0.3727(4)
C71 C 0.5001(5) 1.1865(5) 0.3713(6)
H82 H 0.5290 1.2195 0.3587
C72 C 0.5956(5) 1.1107(5) 0.3805(6)
H83 H 0.6141 1.1342 0.3517
H84 H 0.5785 1.0518 0.3491
H85 H 0.6410 1.1287 0.4372
C73 C 0.4983(5) 1.0945(6) 0.4287(6)
H86 H 0.4492 1.1067 0.4307
H87 H 0.5432 1.1137 0.4858
H88 H 0.4857 1.0362 0.3967
N18 N 0.3291(5) -0.1042(6) 0.1486(5)
O3 O 0.2109(4) -0.1147(4) 0.0396(4)
C74 C 0.2579(6) -0.1519(5) 0.0719(5)
H89 H 0.2446 -0.2088 0.0446
C75 C 0.3932(6) -0.1382(5) 0.1928(7)
H90 H 0.3702 -0.1968 0.1664
H91 H 0.4078 -0.1148 0.2521
H92 H 0.4426 -0.1247 0.1882
C76 C 0.3571(7) -0.0109(6) 0.1881(7)
H93 H 0.3139 0.0064 0.1555
H94 H 0.4080 0.0073 0.1877
H95 H 0.3671 0.0124 0.2460
O4 O 0.3090(8) 0.6772(8) 0.2651(12)
N19 N 0.8524(9) 0.4934(10) 0.5376(19)
C77 C 0.8722(10) 0.5581(7) 0.6050(6)
H96 H 0.8583 0.5442 0.6421
H97 H 0.8416 0.5940 0.5902
H98 H 0.9315 0.5854 0.6338
C78 C 0.8786(8) 0.5149(7) 0.4796(6)
H99 H 0.8635 0.4656 0.4286
H100 H 0.9384 0.5407 0.5098
H101 H 0.8502 0.5519 0.4645
C79 C 0.8148(12) 0.4210(6) 0.5062(9)
H102 H 0.8428 0.3879 0.5259
O5 O 0.7371(10) 0.3890(11) 0.4462(19)
H70? H 0.0102 0.4371 0.1591
H71? H -0.0462 0.3716 0.1618
C67? C -0.1058(9) 0.3704(7) 0.0413(7)
H72? H -0.0867 0.3907 0.0107
H73? H -0.1400 0.4013 0.0581
H74? H -0.1383 0.3135 0.0049
loop_
_geom_bond_atom_site_label_1
_geom_bond_atom_site_label_2
_geom_bond_site_symmetry_1
_geom_bond_site_symmetry_2
Ni1 S3 1_555 1_555
Ni2 S1 1_555 1_555
Ni3 S7 1_555 1_555
S1 C18 1_555 1_555
S2 C18 1_555 1_555
S3 C21 1_555 1_555
S4 C21 1_555 1_555
S5 Ni1 1_555 1_555
S6 C40 1_555 1_555
S7 C43 1_555 1_555
S8 C43 1_555 1_555
S9 Ni2 1_555 1_555
S10 C62 1_555 1_555
S11 Ni3 1_555 1_555
S12 C65 1_555 1_555
N1 C1 1_555 1_555
N2 N3 1_555 1_555
N3 Ni2 1_555 1_555
N4 N5 1_555 1_555
N5 Ni1 1_555 1_555
N6 C29 1_555 1_555
N7 N8 1_555 1_555
N8 Ni1 1_555 1_555
N9 N10 1_555 1_555
N10 Ni3 1_555 1_555
N11 C45 1_555 1_555
N12 N13 1_555 1_555
N13 Ni2 1_555 1_555
N14 N15 1_555 1_555
N15 Ni3 1_555 1_555
C1 C2 1_555 1_555
C2 H1 1_555 1_555
C3 C2 1_555 1_555
H2 C3 1_555 1_555
C4 C3 1_555 1_555
C5 C4 1_555 1_555
H3 C5 1_555 1_555
C6 C1 1_555 1_555
C7 C6 1_555 1_555
C8 C7 1_555 1_555
H4 C8 1_555 1_555
C9 C8 1_555 1_555
C10 C9 1_555 1_555
H5 C10 1_555 1_555
C11 C10 1_555 1_555
H6 C11 1_555 1_555
C12 N1 1_555 1_555
C13 N1 1_555 1_555
H7 C13 1_555 1_555
H8 C13 1_555 1_555
C14 C13 1_555 1_555
H9 C14 1_555 1_555
H10 C14 1_555 1_555
C15 C14 1_555 1_555
H11 C15 1_555 1_555
H12 C15 1_555 1_555
C16 C15 1_555 1_555
H13 C16 1_555 1_555
H14 C16 1_555 1_555
H15 C16 1_555 1_555
C17 N3 1_555 1_555
H16 C17 1_555 1_555
C18 N2 1_555 1_555
C19 S2 1_555 1_555
H17 C19 1_555 1_555
H18 C19 1_555 1_555
H19 C19 1_555 1_555
C20 N5 1_555 1_555
H20 C20 1_555 1_555
C21 N4 1_555 1_555
C22 S4 1_555 1_555
H21 C22 1_555 1_555
H22 C22 1_555 1_555
H23 C22 1_555 1_555
C23 H24 1_555 1_555
C24 C23 1_555 1_555
H25 C24 1_555 1_555
C25 C24 1_555 1_555
C26 N8 1_555 1_555
H26 C26 1_555 1_555
C27 C25 1_555 1_555
H27 C27 1_555 1_555
C28 C27 1_555 1_555
C29 C23 1_555 1_555
C30 C28 1_555 1_555
C31 C30 1_555 1_555
H28 C31 1_555 1_555
C32 C31 1_555 1_555
C33 C32 1_555 1_555
H29 C33 1_555 1_555
C34 C33 1_555 1_555
H30 C34 1_555 1_555
C35 N6 1_555 1_555
C36 N6 1_555 1_555
H31 C36 1_555 1_555
H32 C36 1_555 1_555
C37 C36 1_555 1_555
H33 C37 1_555 1_555
H34 C37 1_555 1_555
C38 C37 1_555 1_555
H35 C38 1_555 1_555
H36 C38 1_555 1_555
C39 C38 1_555 1_555
H37 C39 1_555 1_555
H38 C39 1_555 1_555
H39 C39 1_555 1_555
C40 S5 1_555 1_555
C41 S6 1_555 1_555
H40 C41 1_555 1_555
H41 C41 1_555 1_555
H42 C41 1_555 1_555
C42 N10 1_555 1_555
H43 C42 1_555 1_555
C43 N9 1_555 1_555
C44 S8 1_555 1_555
H44 C44 1_555 1_555
H45 C44 1_555 1_555
H46 C44 1_555 1_555
C45 C46 1_555 1_555
C46 H47 1_555 1_555
C47 C46 1_555 1_555
H48 C47 1_555 1_555
C48 C47 1_555 1_555
C49 C48 1_555 1_555
H49 C49 1_555 1_555
C50 C45 1_555 1_555
C51 C50 1_555 1_555
C52 C51 1_555 1_555
H50 C52 1_555 1_555
C53 C52 1_555 1_555
C54 C53 1_555 1_555
H51 C54 1_555 1_555
C55 C54 1_555 1_555
H52 C55 1_555 1_555
C56 N11 1_555 1_555
C57 N11 1_555 1_555
H53 C57 1_555 1_555
H54 C57 1_555 1_555
C58 C57 1_555 1_555
H55 C58 1_555 1_555
H56 C58 1_555 1_555
C59 C58 1_555 1_555
H57 C59 1_555 1_555
H58 C59 1_555 1_555
C60 C59 1_555 1_555
H59 C60 1_555 1_555
H60 C60 1_555 1_555
H61 C60 1_555 1_555
C61 N13 1_555 1_555
H62 C61 1_555 1_555
C62 S9 1_555 1_555
C63 S10 1_555 1_555
H63 C63 1_555 1_555
H64 C63 1_555 1_555
H65 C63 1_555 1_555
C64 N15 1_555 1_555
H66 C64 1_555 1_555
C65 S11 1_555 1_555
C66 S12 1_555 1_555
H67 C66 1_555 1_555
H68 C66 1_555 1_555
H69 C66 1_555 1_555
O1 C68 1_555 1_555
N16 C68 1_555 1_555
C68 H75 1_555 1_555
C69 N16 1_555 1_555
H76 C69 1_555 1_555
H77 C69 1_555 1_555
H78 C69 1_555 1_555
C70 N16 1_555 1_555
H79 C70 1_555 1_555
H80 C70 1_555 1_555
H81 C70 1_555 1_555
N17 C71 1_555 1_555
O2 C71 1_555 1_555
C71 H82 1_555 1_555
C72 N17 1_555 1_555
H83 C72 1_555 1_555
H84 C72 1_555 1_555
H85 C72 1_555 1_555
C73 N17 1_555 1_555
H86 C73 1_555 1_555
H87 C73 1_555 1_555
H88 C73 1_555 1_555
N18 C74 1_555 1_555
O3 C74 1_555 1_555
C74 H89 1_555 1_555
C75 N18 1_555 1_555
H90 C75 1_555 1_555
H91 C75 1_555 1_555
H92 C75 1_555 1_555
C76 N18 1_555 1_555
H93 C76 1_555 1_555
H94 C76 1_555 1_555
H95 C76 1_555 1_555
N19 C77 1_555 1_555
C77 H96 1_555 1_555
H97 C77 1_555 1_555
H98 C77 1_555 1_555
C78 N19 1_555 1_555
H99 C78 1_555 1_555
H100 C78 1_555 1_555
H101 C78 1_555 1_555
C79 N19 1_555 1_555
H102 C79 1_555 1_555
O5 C79 1_555 1_555
N7 C40 1_555 1_555
N12 C62 1_555 1_555
N14 C65 1_555 1_555
C4 C17 1_555 1_555
C5 C6 1_555 1_555
C7 C12 1_555 1_555
C9 C20 1_555 1_555
C11 C12 1_555 1_555
C25 C26 1_555 1_555
C28 C29 1_555 1_555
C30 C35 1_555 1_555
C32 C42 1_555 1_555
C34 C35 1_555 1_555
C48 C61 1_555 1_555
C49 C50 1_555 1_555
C51 C56 1_555 1_555
C53 C64 1_555 1_555
C55 C56 1_555 1_555

#END
