
#######################################################################
#
#                 Cambridge Crystallographic Data Centre
#                                CCDC 
#
#######################################################################
#
# If this CIF has been generated from an entry in the Cambridge 
# Structural Database, then it will include bibliographic, chemical, 
# crystal, experimental, refinement or atomic coordinate data resulting 
# from the CCDC's data processing and validation procedures.
#
#######################################################################

data_IXUQAU
_chemical_formula_moiety         
'C40 H72 N8 O2 Pd2 Si4 4+,4(C1 F3 O3 S1 1-),C5 H12'
_chemical_name_systematic        
"bis(\m~2~-1,3-bis(4-pyridyl)-1,1,3,3-tetramethyldisiloxane)-bis(N,N,N',N'-tetramethylethane-1,2-diamine)-di-palladium(ii) tetrakis(trifluoromethanesulfonate) pentane solvate"
_symmetry_cell_setting           triclinic
_symmetry_space_group_name_H-M   'P -1'
_symmetry_Int_Tables_number      2
_space_group_name_Hall           '-P 1'
loop_
_symmetry_equiv_pos_site_id
_symmetry_equiv_pos_as_xyz
1 x,y,z
2 -x,-y,-z
_cell_length_a                   10.0638(2)
_cell_length_b                   13.5769(2)
_cell_length_c                   13.6782(2)
_cell_angle_alpha                96.8630(10)
_cell_angle_beta                 98.9950(10)
_cell_angle_gamma                90.9640(10)
_cell_volume                     1831.51
_cell_formula_units_Z            1
loop_
_atom_site_label
_atom_site_type_symbol
_atom_site_fract_x
_atom_site_fract_y
_atom_site_fract_z
S1 S 0.15165(12) 0.72580(9) 0.89710(10)
F1 F 0.2068(4) 0.5654(3) 0.9790(4)
F2 F 0.1051(5) 0.6703(5) 1.0633(4)
F3 F -0.0018(4) 0.5834(4) 0.9339(5)
O2 O 0.0429(3) 0.7906(3) 0.9011(3)
O3 O 0.2794(3) 0.7639(3) 0.9471(3)
O4 O 0.1502(4) 0.6727(3) 0.8014(3)
C21 C 0.1145(7) 0.6327(6) 0.9717(7)
S2 S 0.35102(12) 0.98715(9) 0.71141(10)
F4 F 0.1392(4) 1.0134(4) 0.5832(3)
F5 F 0.2966(5) 0.9344(5) 0.5225(3)
F6 F 0.1739(5) 0.8629(4) 0.6056(4)
O5 O 0.2682(4) 0.9894(4) 0.7869(3)
O6 O 0.4497(3) 0.9128(3) 0.7137(3)
O7 O 0.3985(4) 1.0813(3) 0.6954(4)
C22 C 0.2375(7) 0.9463(6) 0.5993(5)
C23 C 0.4832(8) 0.5521(5) 0.5033(6)
H37 H 0.5199 0.5823 0.4503
H38 H 0.5287 0.5862 0.5683
C24 C 0.3349(8) 0.5711(7) 0.4938(7)
H39 H 0.2894 0.5410 0.4272
H40 H 0.2967 0.5381 0.5444
C25 C 0.3075(15) 0.6722(14) 0.5056(13)
H42 H 0.2100 0.6799 0.4992
H43 H 0.3426 0.7047 0.4543
H44 H 0.3508 0.7026 0.5718
C23A C 0.5168(8) 0.4479(5) 0.4967(6)
H37A H 0.4801 0.4177 0.5497
H38A H 0.4713 0.4138 0.4317
C24A C 0.6651(8) 0.4289(7) 0.5062(7)
H39A H 0.7106 0.4590 0.5728
H40A H 0.7033 0.4619 0.4556
C25A C 0.6925(15) 0.3278(14) 0.4944(13)
H42A H 0.7900 0.3201 0.5008
H43A H 0.6574 0.2953 0.5457
H44A H 0.6492 0.2974 0.4282
Pd1 Pd 0.27083(3) 0.15282(2) 0.20532(2)
Si1 Si 0.53531(14) 0.61070(9) 0.20465(11)
Si2 Si 0.82525(13) 0.65609(9) 0.33707(9)
O1 O 0.6742(3) 0.6177(2) 0.2843(2)
N1 N 0.3545(3) 0.2902(2) 0.2035(3)
N2 N 0.2344(3) 0.2010(2) 0.3442(3)
N3 N 0.1836(4) 0.0141(3) 0.2047(3)
N4 N 0.2991(3) 0.1050(3) 0.0609(3)
C1 C 0.2738(4) 0.3655(3) 0.1880(3)
H1 H 0.1791 0.3531 0.1760
C2 C 0.3239(4) 0.4614(3) 0.1889(3)
H2 H 0.2633 0.5133 0.1781
C3 C 0.4623(4) 0.4825(3) 0.2055(3)
C4 C 0.5430(4) 0.4031(3) 0.2224(3)
H3 H 0.6380 0.4134 0.2347
C5 C 0.4885(4) 0.3091(3) 0.2219(3)
H4 H 0.5470 0.2564 0.2348
C6 C 0.5721(7) 0.6253(5) 0.0800(4)
H5 H 0.6057 0.6933 0.0792
H6 H 0.4897 0.6118 0.0311
H7 H 0.6405 0.5785 0.0631
C7 C 0.4165(7) 0.7025(4) 0.2451(5)
H8 H 0.4007 0.6932 0.3124
H9 H 0.3311 0.6936 0.1989
H10 H 0.4543 0.7696 0.2456
C8 C 0.9359(5) 0.5499(4) 0.3490(4)
H11 H 0.9072 0.5092 0.3970
H12 H 1.0290 0.5744 0.3724
H13 H 0.9303 0.5097 0.2839
C9 C 0.8930(5) 0.7491(4) 0.2681(4)
H14 H 0.9019 0.7182 0.2010
H15 H 0.9815 0.7743 0.3036
H16 H 0.8315 0.8041 0.2631
C10 C 0.8057(4) 0.7159(3) 0.4649(3)
C11 C 0.6939(5) 0.7716(3) 0.4812(3)
H17 H 0.6288 0.7829 0.4259
C12 C 0.3238(4) 0.1901(3) 0.4254(3)
H18 H 0.4024 0.1542 0.4174
C13 C 0.1239(4) 0.2516(3) 0.3570(3)
H19 H 0.0585 0.2586 0.3004
C14 C 0.8978(4) 0.7063(3) 0.5506(3)
H20 H 0.9768 0.6701 0.5449
C15 C 0.0452(5) 0.0192(4) 0.2309(5)
H21 H -0.0043 0.0699 0.1964
H22 H 0.0510 0.0365 0.3032
H23 H -0.0021 -0.0454 0.2105
C16 C 0.2610(5) -0.0448(4) 0.2739(5)
H24 H 0.2145 -0.1093 0.2712
H25 H 0.2703 -0.0099 0.3418
H26 H 0.3505 -0.0549 0.2555
C17 C 0.1670(7) -0.0308(4) 0.1006(5)
H27 H 0.1637 -0.1039 0.0989
H28 H 0.0794 -0.0115 0.0656
C18 C 0.2693(6) -0.0040(4) 0.0477(4)
H29 H 0.2413 -0.0270 -0.0242
H30 H 0.3524 -0.0382 0.0708
C19 C 0.2081(5) 0.1564(4) -0.0103(3)
H31 H 0.2149 0.1281 -0.0786
H32 H 0.2336 0.2273 -0.0010
H33 H 0.1152 0.1479 0.0015
C20 C 0.4384(4) 0.1211(4) 0.0426(3)
H34 H 0.4457 0.0930 -0.0256
H35 H 0.5008 0.0885 0.0899
H36 H 0.4609 0.1924 0.0515
Pd1A Pd 0.72917(3) 0.84718(2) 0.79468(2)
Si1A Si 0.46469(14) 0.38930(9) 0.79535(11)
Si2A Si 0.17475(13) 0.34391(9) 0.66293(9)
O1A O 0.3258(3) 0.3823(2) 0.7157(2)
N1A N 0.6455(3) 0.7098(2) 0.7965(3)
N2A N 0.7656(3) 0.7990(2) 0.6558(3)
N3A N 0.8164(4) 0.9859(3) 0.7953(3)
N4A N 0.7009(3) 0.8950(3) 0.9391(3)
C1A C 0.7262(4) 0.6345(3) 0.8120(3)
H1A H 0.8209 0.6469 0.8240
C2A C 0.6761(4) 0.5386(3) 0.8111(3)
H2A H 0.7367 0.4867 0.8219
C3A C 0.5377(4) 0.5175(3) 0.7945(3)
C4A C 0.4570(4) 0.5969(3) 0.7776(3)
H3A H 0.3620 0.5866 0.7653
C5A C 0.5115(4) 0.6909(3) 0.7781(3)
H4A H 0.4530 0.7436 0.7652
C6A C 0.4279(7) 0.3747(5) 0.9200(4)
H5A H 0.3943 0.3067 0.9208
H6A H 0.5103 0.3882 0.9689
H7A H 0.3595 0.4215 0.9369
C7A C 0.5835(7) 0.2975(4) 0.7549(5)
H8A H 0.5993 0.3068 0.6876
H9A H 0.6689 0.3064 0.8011
H10A H 0.5457 0.2304 0.7544
C8A C 0.0641(5) 0.4501(4) 0.6510(4)
H11A H 0.0928 0.4908 0.6030
H12A H -0.0290 0.4256 0.6276
H13A H 0.0697 0.4903 0.7161
C9A C 0.1070(5) 0.2509(4) 0.7319(4)
H14A H 0.0981 0.2818 0.7990
H15A H 0.0185 0.2257 0.6964
H16A H 0.1685 0.1959 0.7369
C10A C 0.1943(4) 0.2841(3) 0.5351(3)
C11A C 0.3061(5) 0.2284(3) 0.5188(3)
H17A H 0.3712 0.2171 0.5741
C12A C 0.6762(4) 0.8099(3) 0.5746(3)
H18A H 0.5976 0.8458 0.5826
C13A C 0.8761(4) 0.7484(3) 0.6430(3)
H19A H 0.9415 0.7414 0.6996
C14A C 0.1022(4) 0.2937(3) 0.4494(3)
H20A H 0.0232 0.3299 0.4551
C15A C 0.9548(5) 0.9808(4) 0.7691(5)
H21A H 1.0043 0.9301 0.8036
H22A H 0.9490 0.9635 0.6968
H23A H 1.0021 1.0454 0.7895
C16A C 0.7390(5) 1.0448(4) 0.7261(5)
H24A H 0.7855 1.1093 0.7288
H25A H 0.7297 1.0099 0.6582
H26A H 0.6495 1.0549 0.7445
C17A C 0.8330(7) 1.0308(4) 0.8994(5)
H27A H 0.8363 1.1039 0.9011
H28A H 0.9206 1.0115 0.9344
C18A C 0.7307(6) 1.0040(4) 0.9523(4)
H29A H 0.7587 1.0270 1.0242
H30A H 0.6476 1.0382 0.9292
C19A C 0.7919(5) 0.8436(4) 1.0103(3)
H31A H 0.7851 0.8719 1.0786
H32A H 0.7664 0.7727 1.0010
H33A H 0.8848 0.8521 0.9985
C20A C 0.5616(4) 0.8789(4) 0.9574(3)
H34A H 0.5543 0.9070 1.0256
H35A H 0.4992 0.9115 0.9101
H36A H 0.5391 0.8076 0.9485
loop_
_geom_bond_atom_site_label_1
_geom_bond_atom_site_label_2
_geom_bond_site_symmetry_1
_geom_bond_site_symmetry_2
Pd1 N1 1_555 1_555
Si1 O1 1_555 1_555
Si2 O1 1_555 1_555
S1 O2 1_555 1_555
S2 O5 1_555 1_555
F1 C21 1_555 1_555
F2 C21 1_555 1_555
F3 C21 1_555 1_555
F4 C22 1_555 1_555
F5 C22 1_555 1_555
F6 C22 1_555 1_555
O3 S1 1_555 1_555
O4 S1 1_555 1_555
O6 S2 1_555 1_555
O7 S2 1_555 1_555
N1 C1 1_555 1_555
N2 Pd1 1_555 1_555
N3 Pd1 1_555 1_555
N4 Pd1 1_555 1_555
C1 H1 1_555 1_555
C2 C1 1_555 1_555
H2 C2 1_555 1_555
C3 Si1 1_555 1_555
C4 C3 1_555 1_555
H3 C4 1_555 1_555
C5 N1 1_555 1_555
H4 C5 1_555 1_555
C6 Si1 1_555 1_555
H5 C6 1_555 1_555
H6 C6 1_555 1_555
H7 C6 1_555 1_555
C7 Si1 1_555 1_555
H8 C7 1_555 1_555
H9 C7 1_555 1_555
H10 C7 1_555 1_555
C8 Si2 1_555 1_555
H11 C8 1_555 1_555
H12 C8 1_555 1_555
H13 C8 1_555 1_555
C9 Si2 1_555 1_555
H14 C9 1_555 1_555
H15 C9 1_555 1_555
H16 C9 1_555 1_555
C10 Si2 1_555 1_555
C11 C10 1_555 1_555
H17 C11 1_555 1_555
C12 N2 1_555 1_555
H18 C12 1_555 1_555
C13 N2 1_555 1_555
H19 C13 1_555 1_555
C14 C10 1_555 1_555
H20 C14 1_555 1_555
C15 N3 1_555 1_555
H21 C15 1_555 1_555
H22 C15 1_555 1_555
H23 C15 1_555 1_555
C16 N3 1_555 1_555
H24 C16 1_555 1_555
H25 C16 1_555 1_555
H26 C16 1_555 1_555
C17 N3 1_555 1_555
H27 C17 1_555 1_555
H28 C17 1_555 1_555
C18 N4 1_555 1_555
H29 C18 1_555 1_555
H30 C18 1_555 1_555
C19 N4 1_555 1_555
H31 C19 1_555 1_555
H32 C19 1_555 1_555
H33 C19 1_555 1_555
C20 N4 1_555 1_555
H34 C20 1_555 1_555
H35 C20 1_555 1_555
H36 C20 1_555 1_555
C21 S1 1_555 1_555
C22 S2 1_555 1_555
C23 H37 1_555 1_555
H38 C23 1_555 1_555
C24 C23 1_555 1_555
H39 C24 1_555 1_555
H40 C24 1_555 1_555
C25 C24 1_555 1_555
H42 C25 1_555 1_555
H43 C25 1_555 1_555
H44 C25 1_555 1_555
Pd1A N1A 1_555 1_555
Si1A O1A 1_555 1_555
Si2A O1A 1_555 1_555
N1A C1A 1_555 1_555
N2A Pd1A 1_555 1_555
N3A Pd1A 1_555 1_555
N4A Pd1A 1_555 1_555
C1A H1A 1_555 1_555
C2A C1A 1_555 1_555
H2A C2A 1_555 1_555
C3A Si1A 1_555 1_555
C4A C3A 1_555 1_555
H3A C4A 1_555 1_555
C5A N1A 1_555 1_555
H4A C5A 1_555 1_555
C6A Si1A 1_555 1_555
H5A C6A 1_555 1_555
H6A C6A 1_555 1_555
H7A C6A 1_555 1_555
C7A Si1A 1_555 1_555
H8A C7A 1_555 1_555
H9A C7A 1_555 1_555
H10A C7A 1_555 1_555
C8A Si2A 1_555 1_555
H11A C8A 1_555 1_555
H12A C8A 1_555 1_555
H13A C8A 1_555 1_555
C9A Si2A 1_555 1_555
H14A C9A 1_555 1_555
H15A C9A 1_555 1_555
H16A C9A 1_555 1_555
C10A Si2A 1_555 1_555
C11A C12 1_555 1_555
H17A C11A 1_555 1_555
C12A C11 1_555 1_555
H18A C12A 1_555 1_555
C13A C14 1_555 1_555
H19A C13A 1_555 1_555
C14A C13 1_555 1_555
H20A C14A 1_555 1_555
C15A N3A 1_555 1_555
H21A C15A 1_555 1_555
H22A C15A 1_555 1_555
H23A C15A 1_555 1_555
C16A N3A 1_555 1_555
H24A C16A 1_555 1_555
H25A C16A 1_555 1_555
H26A C16A 1_555 1_555
C17A N3A 1_555 1_555
H27A C17A 1_555 1_555
H28A C17A 1_555 1_555
C18A N4A 1_555 1_555
H29A C18A 1_555 1_555
H30A C18A 1_555 1_555
C19A N4A 1_555 1_555
H31A C19A 1_555 1_555
H32A C19A 1_555 1_555
H33A C19A 1_555 1_555
C20A N4A 1_555 1_555
H34A C20A 1_555 1_555
H35A C20A 1_555 1_555
H36A C20A 1_555 1_555
C23A C23 1_555 1_555
H37A C23A 1_555 1_555
H38A C23A 1_555 1_555
C24A C23A 1_555 1_555
H39A C24A 1_555 1_555
H40A C24A 1_555 1_555
C25A C24A 1_555 1_555
H42A C25A 1_555 1_555
H43A C25A 1_555 1_555
H44A C25A 1_555 1_555
C2 C3 1_555 1_555
C4 C5 1_555 1_555
C17 C18 1_555 1_555
N2A C12A 1_555 1_555
N2A C13A 1_555 1_555
C2A C3A 1_555 1_555
C4A C5A 1_555 1_555
C10A C11A 1_555 1_555
C10A C14A 1_555 1_555
C17A C18A 1_555 1_555

#END
