
#######################################################################
#
#                 Cambridge Crystallographic Data Centre
#                                CCDC 
#
#######################################################################
#
# If this CIF has been generated from an entry in the Cambridge 
# Structural Database, then it will include bibliographic, chemical, 
# crystal, experimental, refinement or atomic coordinate data resulting 
# from the CCDC's data processing and validation procedures.
#
#######################################################################

data_JEBYUL
_chemical_formula_moiety         'C84 H156 B20 O8 P8 Pt4'
_chemical_name_systematic        
cyclo-bis(trans(\m~2~-2,9-phenanthrene)-(\m~2~-1,7-dicarba-closo-dodecaborane-1,7-dicarboxylato)-tetrakis(triethylphosphine-P)-di-platinum)
_symmetry_cell_setting           triclinic
_symmetry_space_group_name_H-M   'P -1'
_symmetry_Int_Tables_number      2
_space_group_name_Hall           '-P 1'
loop_
_symmetry_equiv_pos_site_id
_symmetry_equiv_pos_as_xyz
1 x,y,z
2 -x,-y,-z
_cell_length_a                   14.0198(6)
_cell_length_b                   15.8200(7)
_cell_length_c                   16.3241(5)
_cell_angle_alpha                90.049(2)
_cell_angle_beta                 114.665(2)
_cell_angle_gamma                114.3207(15)
_cell_volume                     2932.31
_exptl_crystal_colour            'pale yellow'
_exptl_crystal_description       prism
_cell_formula_units_Z            1
_exptl_crystal_recrystallization_method acetone/chloroform/dichloromethane
loop_
_atom_site_label
_atom_site_type_symbol
_atom_site_fract_x
_atom_site_fract_y
_atom_site_fract_z
Pt1 Pt 0.31306(4) 0.33294(3) 0.76617(3)
Pt2 Pt 0.06998(3) -0.19385(3) 0.83269(2)
P1 P 0.1458(3) 0.3264(2) 0.76570(19)
P2 P 0.4626(3) 0.3196(2) 0.7532(2)
P3 P 0.2268(3) -0.2262(2) 0.8699(2)
P4 P -0.0763(2) -0.1486(2) 0.79617(19)
O1 O 0.2734(6) 0.3829(5) 0.6393(5)
O2 O 0.3114(9) 0.5227(6) 0.7128(5)
O3 O -0.0363(6) -0.3071(5) 0.7150(5)
O4 O -0.1330(9) -0.4077(6) 0.7811(6)
C1 C 0.2875(11) 0.4650(8) 0.6469(7)
C2 C 0.2672(9) 0.5022(7) 0.5541(6)
C3 C -0.1774(10) -0.4613(7) 0.6277(7)
C4 C -0.1073(10) -0.3853(8) 0.7180(7)
C5 C 0.3653(9) 0.2962(7) 0.8889(7)
C6 C 0.4551(10) 0.3678(7) 0.9675(7)
H1 H 0.4920 0.4307 0.9597
C7 C 0.4908(9) 0.3497(8) 1.0547(7)
H2 H 0.5497 0.4001 1.1064
C8 C 0.4414(9) 0.2584(8) 1.0675(6)
C9 C 0.4736(10) 0.2366(8) 1.1594(7)
H3 H 0.5314 0.2864 1.2118
C10 C 0.4241(9) 0.1489(8) 1.1717(7)
H4 H 0.4470 0.1382 1.2328
C11 C 0.3378(9) 0.0702(7) 1.0964(7)
C12 C 0.2842(10) -0.0232(8) 1.1070(7)
H5 H 0.3043 -0.0350 1.1676
C13 C 0.2051(9) -0.0971(8) 1.0345(7)
H6 H 0.1688 -0.1584 1.0455
C14 C 0.1740(9) -0.0847(7) 0.9393(7)
C15 C 0.2255(8) 0.0067(7) 0.9310(7)
H7 H 0.2057 0.0182 0.8704
C16 C 0.3057(8) 0.0857(7) 1.0047(6)
C17 C 0.3573(8) 0.1826(7) 0.9923(7)
C18 C 0.3206(9) 0.2046(7) 0.9027(7)
H8 H 0.2632 0.1543 0.8507
C19 C 0.0698(11) 0.2254(9) 0.8061(9)
H9 H 0.0532 0.1670 0.7690
H10 H 0.1241 0.2301 0.8707
C20 C -0.0471(12) 0.2137(12) 0.8026(11)
H11 H -0.0325 0.2703 0.8400
H12 H -0.0791 0.1579 0.8268
H13 H -0.1038 0.2055 0.7386
C21 C 0.1605(11) 0.4291(9) 0.8302(8)
H14 H 0.2020 0.4870 0.8115
H15 H 0.0810 0.4224 0.8141
C22 C 0.2274(13) 0.4413(11) 0.9343(10)
H16 H 0.1768 0.3937 0.9557
H17 H 0.2503 0.5049 0.9646
H18 H 0.2981 0.4332 0.9495
C23 C 0.0339(10) 0.3134(9) 0.6491(8)
H19 H -0.0362 0.3104 0.6527
H20 H 0.0654 0.3704 0.6250
C24 C -0.0039(13) 0.2263(10) 0.5820(9)
H21 H 0.0648 0.2286 0.5778
H22 H -0.0621 0.2247 0.5211
H23 H -0.0390 0.1692 0.6036
C25 C 0.4855(12) 0.2186(10) 0.7929(9)
H24 H 0.5110 0.2275 0.8600
H25 H 0.4091 0.1606 0.7625
C26 C 0.5764(17) 0.2022(14) 0.7746(11)
H26 H 0.5452 0.1809 0.7083
H27 H 0.5924 0.1536 0.8068
H28 H 0.6496 0.2615 0.7972
C27 C 0.4359(12) 0.3036(10) 0.6355(8)
H29 H 0.4337 0.3607 0.6119
H30 H 0.5023 0.2975 0.6331
C28 C 0.3221(14) 0.2174(10) 0.5734(9)
H31 H 0.3225 0.1607 0.5975
H32 H 0.3148 0.2103 0.5111
H33 H 0.2555 0.2252 0.5715
C29 C 0.6080(11) 0.4228(10) 0.8154(9)
H34 H 0.6415 0.4208 0.8817
H35 H 0.6612 0.4189 0.7921
C30 C 0.6034(13) 0.5162(10) 0.8049(10)
H36 H 0.5804 0.5224 0.7406
H37 H 0.6812 0.5685 0.8447
H38 H 0.5456 0.5182 0.8228
C31 C 0.2130(12) -0.3019(10) 0.7776(11)
H39 H 0.1432 -0.3639 0.7606
H40 H 0.2832 -0.3132 0.8004
C32 C 0.2008(14) -0.2604(13) 0.6923(11)
H41 H 0.2791 -0.2164 0.7000
H42 H 0.1617 -0.3116 0.6384
H43 H 0.1537 -0.2263 0.6833
C33 C 0.3719(11) -0.1220(10) 0.9119(10)
H44 H 0.4319 -0.1447 0.9247
H45 H 0.3906 -0.0868 0.9711
C34 C 0.3832(13) -0.0534(11) 0.8475(12)
H46 H 0.3134 -0.0426 0.8219
H47 H 0.4536 0.0069 0.8818
H48 H 0.3900 -0.0804 0.7973
C35 C 0.2525(15) -0.2869(13) 0.9655(12)
H49 H 0.2900 -0.2406 1.0237
H50 H 0.3080 -0.3116 0.9686
C36 C 0.1357(15) -0.3717(12) 0.9570(14)
H51 H 0.0956 -0.4159 0.8978
H52 H 0.1555 -0.4049 1.0074
H53 H 0.0838 -0.3468 0.9606
C37 C -0.0458(12) -0.0407(9) 0.7511(11)
H54 H 0.0204 0.0136 0.8015
H55 H -0.1158 -0.0290 0.7284
C38 C -0.0143(15) -0.0465(13) 0.6716(11)
H56 H -0.0806 -0.0989 0.6207
H57 H 0.0023 0.0132 0.6498
H58 H 0.0554 -0.0575 0.6939
C39 C -0.2210(10) -0.2356(8) 0.7070(8)
H59 H -0.2453 -0.2951 0.7297
H60 H -0.2132 -0.2498 0.6518
C40 C -0.3176(12) -0.2057(11) 0.6787(10)
H61 H -0.2974 -0.1493 0.6521
H62 H -0.3918 -0.2574 0.6327
H63 H -0.3262 -0.1911 0.7328
C41 C -0.0973(12) -0.1167(10) 0.8922(9)
H64 H -0.1538 -0.0896 0.8707
H65 H -0.0214 -0.0671 0.9405
C42 C -0.1429(17) -0.2006(15) 0.9337(13)
H66 H -0.0907 -0.2308 0.9506
H67 H -0.1451 -0.1788 0.9888
H68 H -0.2225 -0.2465 0.8885
B1 B 0.1351(11) 0.4369(9) 0.4588(8)
H69 H 0.0615 0.3697 0.4561
B2 B 0.2689(11) 0.4417(9) 0.4691(8)
H70 H 0.2828 0.3767 0.4735
B3 B 0.3850(11) 0.5566(9) 0.5316(9)
H71 H 0.4766 0.5679 0.5780
B4 B 0.3227(11) 0.6237(9) 0.5604(8)
H72 H 0.3728 0.6791 0.6254
B5 B 0.1692(11) 0.5484(9) 0.5157(8)
H73 H 0.1192 0.5545 0.5520
B6 B -0.3244(11) -0.5293(9) 0.5896(9)
H74 H -0.3750 -0.5225 0.6250
B7 B 0.3567(12) 0.6407(9) 0.4670(9)
H75 H 0.4300 0.7081 0.4697
B8 B 0.2222(12) 0.6351(9) 0.4558(9)
H76 H 0.2058 0.6990 0.4508
B9 B -0.1082(12) -0.5202(9) 0.6064(9)
H77 H -0.0159 -0.5068 0.6535
B10 B -0.2228(13) -0.5778(9) 0.6355(9)
H78 H -0.2059 -0.6031 0.7019
Pt1A Pt -0.31306(4) -0.33294(3) 0.23383(3)
Pt2A Pt -0.06998(3) 0.19385(3) 0.16731(2)
P1A P -0.1458(3) -0.3264(2) 0.23430(19)
P2A P -0.4626(3) -0.3196(2) 0.2468(2)
P3A P -0.2268(3) 0.2262(2) 0.1301(2)
P4A P 0.0763(2) 0.1486(2) 0.20383(19)
O1A O -0.2734(6) -0.3829(5) 0.3607(5)
O2A O -0.3114(9) -0.5227(6) 0.2872(5)
O3A O 0.0363(6) 0.3071(5) 0.2850(5)
O4A O 0.1330(9) 0.4077(6) 0.2189(6)
C1A C -0.2875(11) -0.4650(8) 0.3531(7)
C2A C -0.2672(9) -0.5022(7) 0.4459(6)
C3A C 0.1774(10) 0.4613(7) 0.3723(7)
C4A C 0.1073(10) 0.3853(8) 0.2820(7)
C5A C -0.3653(9) -0.2962(7) 0.1111(7)
C6A C -0.4551(10) -0.3678(7) 0.0325(7)
H1A H -0.4920 -0.4307 0.0403
C7A C -0.4908(9) -0.3497(8) -0.0547(7)
H2A H -0.5497 -0.4001 -0.1064
C8A C -0.4414(9) -0.2584(8) -0.0675(6)
C9A C -0.4736(10) -0.2366(8) -0.1594(7)
H3A H -0.5314 -0.2864 -0.2118
C10A C -0.4241(9) -0.1489(8) -0.1717(7)
H4A H -0.4470 -0.1382 -0.2328
C11A C -0.3378(9) -0.0702(7) -0.0964(7)
C12A C -0.2842(10) 0.0232(8) -0.1070(7)
H5A H -0.3043 0.0350 -0.1676
C13A C -0.2051(9) 0.0971(8) -0.0345(7)
H6A H -0.1688 0.1584 -0.0455
C14A C -0.1740(9) 0.0847(7) 0.0607(7)
C15A C -0.2255(8) -0.0067(7) 0.0690(7)
H7A H -0.2057 -0.0182 0.1296
C16A C -0.3057(8) -0.0857(7) -0.0047(6)
C17A C -0.3573(8) -0.1826(7) 0.0077(7)
C18A C -0.3206(9) -0.2046(7) 0.0973(7)
H8A H -0.2632 -0.1543 0.1493
C19A C -0.0698(11) -0.2254(9) 0.1939(9)
H9A H -0.0532 -0.1670 0.2310
H10A H -0.1241 -0.2301 0.1293
C20A C 0.0471(12) -0.2137(12) 0.1974(11)
H11A H 0.0325 -0.2703 0.1600
H12A H 0.0791 -0.1579 0.1732
H13A H 0.1038 -0.2055 0.2614
C21A C -0.1605(11) -0.4291(9) 0.1698(8)
H14A H -0.2020 -0.4870 0.1885
H15A H -0.0810 -0.4224 0.1859
C22A C -0.2274(13) -0.4413(11) 0.0657(10)
H16A H -0.1768 -0.3937 0.0443
H17A H -0.2503 -0.5049 0.0354
H18A H -0.2981 -0.4332 0.0505
C23A C -0.0339(10) -0.3134(9) 0.3509(8)
H19A H 0.0362 -0.3104 0.3473
H20A H -0.0654 -0.3704 0.3750
C24A C 0.0039(13) -0.2263(10) 0.4180(9)
H21A H -0.0648 -0.2286 0.4222
H22A H 0.0621 -0.2247 0.4789
H23A H 0.0390 -0.1692 0.3964
C25A C -0.4855(12) -0.2186(10) 0.2071(9)
H24A H -0.5110 -0.2275 0.1400
H25A H -0.4091 -0.1606 0.2375
C26A C -0.5764(17) -0.2022(14) 0.2254(11)
H26A H -0.5452 -0.1809 0.2917
H27A H -0.5924 -0.1536 0.1932
H28A H -0.6496 -0.2615 0.2028
C27A C -0.4359(12) -0.3036(10) 0.3645(8)
H29A H -0.4337 -0.3607 0.3881
H30A H -0.5023 -0.2975 0.3669
C28A C -0.3221(14) -0.2174(10) 0.4266(9)
H31A H -0.3225 -0.1607 0.4025
H32A H -0.3148 -0.2103 0.4889
H33A H -0.2555 -0.2252 0.4285
C29A C -0.6080(11) -0.4228(10) 0.1846(9)
H34A H -0.6415 -0.4208 0.1183
H35A H -0.6612 -0.4189 0.2079
C30A C -0.6034(13) -0.5162(10) 0.1951(10)
H36A H -0.5804 -0.5224 0.2594
H37A H -0.6812 -0.5685 0.1553
H38A H -0.5456 -0.5182 0.1772
C31A C -0.2130(12) 0.3019(10) 0.2224(11)
H39A H -0.1432 0.3639 0.2394
H40A H -0.2832 0.3132 0.1996
C32A C -0.2008(14) 0.2604(13) 0.3077(11)
H41A H -0.2791 0.2164 0.3000
H42A H -0.1617 0.3116 0.3616
H43A H -0.1537 0.2263 0.3167
C33A C -0.3719(11) 0.1220(10) 0.0881(10)
H44A H -0.4319 0.1447 0.0753
H45A H -0.3906 0.0868 0.0289
C34A C -0.3832(13) 0.0534(11) 0.1525(12)
H46A H -0.3134 0.0426 0.1781
H47A H -0.4536 -0.0069 0.1182
H48A H -0.3900 0.0804 0.2027
C35A C -0.2525(15) 0.2869(13) 0.0345(12)
H49A H -0.2900 0.2406 -0.0237
H50A H -0.3080 0.3116 0.0314
C36A C -0.1357(15) 0.3717(12) 0.0430(14)
H51A H -0.0956 0.4159 0.1022
H52A H -0.1555 0.4049 -0.0074
H53A H -0.0838 0.3468 0.0394
C37A C 0.0458(12) 0.0407(9) 0.2489(11)
H54A H -0.0204 -0.0136 0.1985
H55A H 0.1158 0.0290 0.2716
C38A C 0.0143(15) 0.0465(13) 0.3284(11)
H56A H 0.0806 0.0989 0.3793
H57A H -0.0023 -0.0132 0.3502
H58A H -0.0554 0.0575 0.3061
C39A C 0.2210(10) 0.2356(8) 0.2930(8)
H59A H 0.2453 0.2951 0.2703
H60A H 0.2132 0.2498 0.3482
C40A C 0.3176(12) 0.2057(11) 0.3213(10)
H61A H 0.2974 0.1493 0.3479
H62A H 0.3918 0.2574 0.3673
H63A H 0.3262 0.1911 0.2672
C41A C 0.0973(12) 0.1167(10) 0.1078(9)
H64A H 0.1538 0.0896 0.1293
H65A H 0.0214 0.0671 0.0595
C42A C 0.1429(17) 0.2006(15) 0.0663(13)
H66A H 0.0907 0.2308 0.0494
H67A H 0.1451 0.1788 0.0112
H68A H 0.2225 0.2465 0.1115
B1A B -0.1351(11) -0.4369(9) 0.5412(8)
H69A H -0.0615 -0.3697 0.5439
B2A B -0.2689(11) -0.4417(9) 0.5309(8)
H70A H -0.2828 -0.3767 0.5265
B3A B -0.3850(11) -0.5566(9) 0.4684(9)
H71A H -0.4766 -0.5679 0.4220
B4A B -0.3227(11) -0.6237(9) 0.4396(8)
H72A H -0.3728 -0.6791 0.3746
B5A B -0.1692(11) -0.5484(9) 0.4843(8)
H73A H -0.1192 -0.5545 0.4480
B6A B 0.3244(11) 0.5293(9) 0.4104(9)
H74A H 0.3750 0.5225 0.3750
B7A B -0.3567(12) -0.6407(9) 0.5330(9)
H75A H -0.4300 -0.7081 0.5303
B8A B -0.2222(12) -0.6351(9) 0.5442(9)
H76A H -0.2058 -0.6990 0.5492
B9A B 0.1082(12) 0.5202(9) 0.3936(9)
H77A H 0.0159 0.5068 0.3465
B10A B 0.2228(13) 0.5778(9) 0.3645(9)
H78A H 0.2059 0.6031 0.2981
loop_
_geom_bond_atom_site_label_1
_geom_bond_atom_site_label_2
_geom_bond_site_symmetry_1
_geom_bond_site_symmetry_2
Pt1 P1 1_555 1_555
Pt2 P3 1_555 1_555
P1 C19 1_555 1_555
P2 Pt1 1_555 1_555
P3 C31 1_555 1_555
P4 Pt2 1_555 1_555
O1 Pt1 1_555 1_555
O2 C1 1_555 1_555
O3 Pt2 1_555 1_555
O4 C4 1_555 1_555
C1 O1 1_555 1_555
C2 C1 1_555 1_555
C3 C4 1_555 1_555
C4 O3 1_555 1_555
C5 Pt1 1_555 1_555
C6 C5 1_555 1_555
H1 C6 1_555 1_555
C7 C6 1_555 1_555
H2 C7 1_555 1_555
C8 C7 1_555 1_555
C9 C8 1_555 1_555
H3 C9 1_555 1_555
C10 C9 1_555 1_555
H4 C10 1_555 1_555
C11 C10 1_555 1_555
C12 C11 1_555 1_555
H5 C12 1_555 1_555
C13 C12 1_555 1_555
H6 C13 1_555 1_555
C14 Pt2 1_555 1_555
C15 C14 1_555 1_555
H7 C15 1_555 1_555
C16 C11 1_555 1_555
C17 C8 1_555 1_555
C18 C5 1_555 1_555
H8 C18 1_555 1_555
C19 H9 1_555 1_555
H10 C19 1_555 1_555
C20 C19 1_555 1_555
H11 C20 1_555 1_555
H12 C20 1_555 1_555
H13 C20 1_555 1_555
C21 P1 1_555 1_555
H14 C21 1_555 1_555
H15 C21 1_555 1_555
C22 C21 1_555 1_555
H16 C22 1_555 1_555
H17 C22 1_555 1_555
H18 C22 1_555 1_555
C23 P1 1_555 1_555
H19 C23 1_555 1_555
H20 C23 1_555 1_555
C24 C23 1_555 1_555
H21 C24 1_555 1_555
H22 C24 1_555 1_555
H23 C24 1_555 1_555
C25 P2 1_555 1_555
H24 C25 1_555 1_555
H25 C25 1_555 1_555
C26 C25 1_555 1_555
H26 C26 1_555 1_555
H27 C26 1_555 1_555
H28 C26 1_555 1_555
C27 P2 1_555 1_555
H29 C27 1_555 1_555
H30 C27 1_555 1_555
C28 C27 1_555 1_555
H31 C28 1_555 1_555
H32 C28 1_555 1_555
H33 C28 1_555 1_555
C29 P2 1_555 1_555
H34 C29 1_555 1_555
H35 C29 1_555 1_555
C30 C29 1_555 1_555
H36 C30 1_555 1_555
H37 C30 1_555 1_555
H38 C30 1_555 1_555
C31 H39 1_555 1_555
H40 C31 1_555 1_555
C32 C31 1_555 1_555
H41 C32 1_555 1_555
H42 C32 1_555 1_555
H43 C32 1_555 1_555
C33 P3 1_555 1_555
H44 C33 1_555 1_555
H45 C33 1_555 1_555
C34 C33 1_555 1_555
H46 C34 1_555 1_555
H47 C34 1_555 1_555
H48 C34 1_555 1_555
C35 P3 1_555 1_555
H49 C35 1_555 1_555
H50 C35 1_555 1_555
C36 C35 1_555 1_555
H51 C36 1_555 1_555
H52 C36 1_555 1_555
H53 C36 1_555 1_555
C37 P4 1_555 1_555
H54 C37 1_555 1_555
H55 C37 1_555 1_555
C38 C37 1_555 1_555
H56 C38 1_555 1_555
H57 C38 1_555 1_555
H58 C38 1_555 1_555
C39 P4 1_555 1_555
H59 C39 1_555 1_555
H60 C39 1_555 1_555
C40 C39 1_555 1_555
H61 C40 1_555 1_555
H62 C40 1_555 1_555
H63 C40 1_555 1_555
C41 P4 1_555 1_555
H64 C41 1_555 1_555
H65 C41 1_555 1_555
C42 C41 1_555 1_555
H66 C42 1_555 1_555
H67 C42 1_555 1_555
H68 C42 1_555 1_555
B1 C2 1_555 1_555
H69 B1 1_555 1_555
B2 C2 1_555 1_555
H70 B2 1_555 1_555
B3 C2 1_555 1_555
H71 B3 1_555 1_555
B4 C2 1_555 1_555
H72 B4 1_555 1_555
B5 C2 1_555 1_555
H73 B5 1_555 1_555
B6 C3 1_555 1_555
H74 B6 1_555 1_555
B7 B3 1_555 1_555
H75 B7 1_555 1_555
B8 B4 1_555 1_555
H76 B8 1_555 1_555
B9 C3 1_555 1_555
H77 B9 1_555 1_555
B10 C3 1_555 1_555
H78 B10 1_555 1_555
Pt1A P1A 1_555 1_555
Pt2A P3A 1_555 1_555
P1A C19A 1_555 1_555
P2A Pt1A 1_555 1_555
P3A C31A 1_555 1_555
P4A Pt2A 1_555 1_555
O1A Pt1A 1_555 1_555
O2A C1A 1_555 1_555
O3A Pt2A 1_555 1_555
O4A C4A 1_555 1_555
C1A O1A 1_555 1_555
C2A C1A 1_555 1_555
C3A B1 1_555 1_555
C4A O3A 1_555 1_555
C5A Pt1A 1_555 1_555
C6A C5A 1_555 1_555
H1A C6A 1_555 1_555
C7A C6A 1_555 1_555
H2A C7A 1_555 1_555
C8A C7A 1_555 1_555
C9A C8A 1_555 1_555
H3A C9A 1_555 1_555
C10A C9A 1_555 1_555
H4A C10A 1_555 1_555
C11A C10A 1_555 1_555
C12A C11A 1_555 1_555
H5A C12A 1_555 1_555
C13A C12A 1_555 1_555
H6A C13A 1_555 1_555
C14A Pt2A 1_555 1_555
C15A C14A 1_555 1_555
H7A C15A 1_555 1_555
C16A C11A 1_555 1_555
C17A C8A 1_555 1_555
C18A C5A 1_555 1_555
H8A C18A 1_555 1_555
C19A H9A 1_555 1_555
H10A C19A 1_555 1_555
C20A C19A 1_555 1_555
H11A C20A 1_555 1_555
H12A C20A 1_555 1_555
H13A C20A 1_555 1_555
C21A P1A 1_555 1_555
H14A C21A 1_555 1_555
H15A C21A 1_555 1_555
C22A C21A 1_555 1_555
H16A C22A 1_555 1_555
H17A C22A 1_555 1_555
H18A C22A 1_555 1_555
C23A P1A 1_555 1_555
H19A C23A 1_555 1_555
H20A C23A 1_555 1_555
C24A C23A 1_555 1_555
H21A C24A 1_555 1_555
H22A C24A 1_555 1_555
H23A C24A 1_555 1_555
C25A P2A 1_555 1_555
H24A C25A 1_555 1_555
H25A C25A 1_555 1_555
C26A C25A 1_555 1_555
H26A C26A 1_555 1_555
H27A C26A 1_555 1_555
H28A C26A 1_555 1_555
C27A P2A 1_555 1_555
H29A C27A 1_555 1_555
H30A C27A 1_555 1_555
C28A C27A 1_555 1_555
H31A C28A 1_555 1_555
H32A C28A 1_555 1_555
H33A C28A 1_555 1_555
C29A P2A 1_555 1_555
H34A C29A 1_555 1_555
H35A C29A 1_555 1_555
C30A C29A 1_555 1_555
H36A C30A 1_555 1_555
H37A C30A 1_555 1_555
H38A C30A 1_555 1_555
C31A H39A 1_555 1_555
H40A C31A 1_555 1_555
C32A C31A 1_555 1_555
H41A C32A 1_555 1_555
H42A C32A 1_555 1_555
H43A C32A 1_555 1_555
C33A P3A 1_555 1_555
H44A C33A 1_555 1_555
H45A C33A 1_555 1_555
C34A C33A 1_555 1_555
H46A C34A 1_555 1_555
H47A C34A 1_555 1_555
H48A C34A 1_555 1_555
C35A P3A 1_555 1_555
H49A C35A 1_555 1_555
H50A C35A 1_555 1_555
C36A C35A 1_555 1_555
H51A C36A 1_555 1_555
H52A C36A 1_555 1_555
H53A C36A 1_555 1_555
C37A P4A 1_555 1_555
H54A C37A 1_555 1_555
H55A C37A 1_555 1_555
C38A C37A 1_555 1_555
H56A C38A 1_555 1_555
H57A C38A 1_555 1_555
H58A C38A 1_555 1_555
C39A P4A 1_555 1_555
H59A C39A 1_555 1_555
H60A C39A 1_555 1_555
C40A C39A 1_555 1_555
H61A C40A 1_555 1_555
H62A C40A 1_555 1_555
H63A C40A 1_555 1_555
C41A P4A 1_555 1_555
H64A C41A 1_555 1_555
H65A C41A 1_555 1_555
C42A C41A 1_555 1_555
H66A C42A 1_555 1_555
H67A C42A 1_555 1_555
H68A C42A 1_555 1_555
B1A C3 1_555 1_555
H69A B1A 1_555 1_555
B2A C3 1_555 1_555
H70A B2A 1_555 1_555
B3A B6 1_555 1_555
H71A B3A 1_555 1_555
B4A C2A 1_555 1_555
H72A B4A 1_555 1_555
B5A B9 1_555 1_555
H73A B5A 1_555 1_555
B6A B2 1_555 1_555
H74A B6A 1_555 1_555
B7A B6 1_555 1_555
H75A B7A 1_555 1_555
B8A B9 1_555 1_555
H76A B8A 1_555 1_555
B9A B1 1_555 1_555
H77A B9A 1_555 1_555
B10A B7 1_555 1_555
H78A B10A 1_555 1_555
C13 C14 1_555 1_555
C15 C16 1_555 1_555
C16 C17 1_555 1_555
C17 C18 1_555 1_555
B1 B2 1_555 1_555
B1 B5 1_555 1_555
B2 B3 1_555 1_555
B2 C3A 1_555 1_555
B3 B4 1_555 1_555
B3 B6A 1_555 1_555
B4 B5 1_555 1_555
B4 B7 1_555 1_555
B5 B8 1_555 1_555
B5 B9A 1_555 1_555
B6 B10 1_555 1_555
B6 B2A 1_555 1_555
B7 B8 1_555 1_555
B7 B6A 1_555 1_555
B8 B9A 1_555 1_555
B8 B10A 1_555 1_555
B9 B10 1_555 1_555
B9 B1A 1_555 1_555
B10 B7A 1_555 1_555
B10 B8A 1_555 1_555
C2A B1A 1_555 1_555
C2A B2A 1_555 1_555
C2A B3A 1_555 1_555
C2A B5A 1_555 1_555
C3A C4A 1_555 1_555
C3A B6A 1_555 1_555
C3A B9A 1_555 1_555
C3A B10A 1_555 1_555
C13A C14A 1_555 1_555
C15A C16A 1_555 1_555
C16A C17A 1_555 1_555
C17A C18A 1_555 1_555
B1A B2A 1_555 1_555
B1A B5A 1_555 1_555
B2A B3A 1_555 1_555
B3A B4A 1_555 1_555
B3A B7A 1_555 1_555
B4A B5A 1_555 1_555
B4A B7A 1_555 1_555
B4A B8A 1_555 1_555
B5A B8A 1_555 1_555
B6A B10A 1_555 1_555
B7A B8A 1_555 1_555
B9A B10A 1_555 1_555

#END
