
#######################################################################
#
#                 Cambridge Crystallographic Data Centre
#                                CCDC 
#
#######################################################################
#
# If this CIF has been generated from an entry in the Cambridge 
# Structural Database, then it will include bibliographic, chemical, 
# crystal, experimental, refinement or atomic coordinate data resulting 
# from the CCDC's data processing and validation procedures.
#
#######################################################################

data_JEBZAS
_chemical_formula_moiety         'C84 H156 B20 O8 P8 Pt4,2(C3 H6 O1)'
_chemical_name_systematic        
'cyclo-bis(trans(\m~2~-1,8-anthracene)-(\m~2~-1,12-dicarba-closo-dodecaborane-1,12-dicarboxylato)-tetrakis(triethylphosphine-P)-di-platinum) acetone solvate'
_symmetry_cell_setting           monoclinic
_symmetry_space_group_name_H-M   'P 21/n'
_symmetry_Int_Tables_number      14
_space_group_name_Hall           '-P 2yn'
loop_
_symmetry_equiv_pos_site_id
_symmetry_equiv_pos_as_xyz
1 x,y,z
2 1/2-x,1/2+y,1/2-z
3 -x,-y,-z
4 1/2+x,1/2-y,1/2+z
_cell_length_a                   20.1146(3)
_cell_length_b                   25.0555(4)
_cell_length_c                   22.5939(3)
_cell_angle_alpha                90
_cell_angle_beta                 99.0506(8)
_cell_angle_gamma                90
_cell_volume                     11245.1
_exptl_crystal_colour            yellow
_exptl_crystal_description       prism
_cell_formula_units_Z            4
_exptl_crystal_recrystallization_method acetone/chloroform
loop_
_atom_site_label
_atom_site_type_symbol
_atom_site_fract_x
_atom_site_fract_y
_atom_site_fract_z
O9 O 0.1227(6) 0.2953(6) 1.0393(6)
C94 C 0.0200(10) 0.2947(10) 0.9639(5)
H187 H 0.0523 0.2936 0.9356
H188 H -0.0121 0.3238 0.9528
H189 H -0.0043 0.2607 0.9625
C95 C 0.0583(6) 0.3042(4) 1.0285(5)
C96 C 0.0198(7) 0.3071(6) 1.0781(6)
H190 H 0.0505 0.3129 1.1157
H191 H -0.0049 0.2737 1.0805
H192 H -0.0122 0.3368 1.0713
O10 O 0.1068(7) 0.6717(7) 0.5434(7)
C97 C 0.0349(9) 0.7188(7) 0.4690(5)
H193 H 0.0660 0.7030 0.4447
H194 H 0.0401 0.7576 0.4697
H195 H -0.0115 0.7095 0.4518
C98 C 0.0506(5) 0.6971(4) 0.5330(4)
C99 C 0.0123(7) 0.7133(6) 0.5797(5)
H196 H 0.0303 0.6952 0.6173
H197 H -0.0351 0.7036 0.5678
H198 H 0.0161 0.7520 0.5854
Pt1 Pt 0.753739(12) 0.589176(11) 0.168106(11)
Pt2 Pt 0.720088(11) 0.384445(10) 0.106183(10)
Pt3 Pt 0.287354(11) 0.375157(10) 0.393153(10)
Pt4 Pt 0.240848(11) 0.578663(10) 0.338322(11)
P1 P 0.73448(9) 0.64369(8) 0.08436(9)
P2 P 0.77614(8) 0.54177(8) 0.25615(8)
P3 P 0.64532(8) 0.41993(7) 0.02983(7)
P4 P 0.79363(8) 0.33656(7) 0.17546(7)
P5 P 0.36040(8) 0.41244(7) 0.46957(7)
P6 P 0.21695(8) 0.32568(7) 0.32346(7)
P7 P 0.26495(9) 0.63316(8) 0.42115(8)
P8 P 0.21626(8) 0.53315(7) 0.24914(8)
O1 O 0.3163(2) 0.6685(2) 0.2732(2)
O2 O 0.3405(2) 0.59014(17) 0.31790(19)
O3 O 0.6528(2) 0.59746(18) 0.18686(19)
O4 O 0.6693(2) 0.6786(2) 0.2267(2)
O5 O 0.6476(2) 0.37171(18) 0.16461(18)
O6 O 0.5940(3) 0.3026(2) 0.1153(2)
O7 O 0.36033(19) 0.36734(18) 0.33369(17)
O8 O 0.4159(2) 0.2985(2) 0.3812(2)
B1 B 0.4921(3) 0.6304(4) 0.3255(3)
H1 H 0.4895 0.6289 0.3746
B2 B 0.4725(3) 0.5741(3) 0.2795(3)
H2 H 0.4571 0.5354 0.2983
B3 B 0.4360(4) 0.5974(3) 0.2069(3)
H3 H 0.3961 0.5741 0.1776
B4 B 0.4343(4) 0.6675(3) 0.2088(4)
H4 H 0.3934 0.6906 0.1806
B5 B 0.4687(4) 0.6887(3) 0.2812(4)
H5 H 0.4506 0.7258 0.3011
B6 B 0.5556(4) 0.5976(4) 0.2939(3)
H6 H 0.5968 0.5746 0.3218
B7 B 0.5206(4) 0.5764(3) 0.2206(3)
H7 H 0.5382 0.5393 0.2000
B8 B 0.4976(4) 0.6343(4) 0.1779(3)
H8 H 0.5005 0.6355 0.1288
B9 B 0.5174(4) 0.6907(3) 0.2239(4)
H9 H 0.5332 0.7294 0.2054
B10 B 0.5537(4) 0.6683(3) 0.2958(3)
H10 H 0.5934 0.6919 0.3249
B11 B 0.5867(4) 0.3387(3) 0.2762(3)
H11 H 0.6418 0.3412 0.2940
B12 B 0.5425(4) 0.3936(3) 0.2403(3)
H12 H 0.5685 0.4323 0.2344
B13 B 0.4784(4) 0.3691(3) 0.1845(3)
H13 H 0.4623 0.3914 0.1417
B14 B 0.4818(4) 0.2979(3) 0.1867(4)
H14 H 0.4673 0.2732 0.1453
B15 B 0.5489(4) 0.2789(4) 0.2421(3)
H15 H 0.5789 0.2420 0.2372
B16 B 0.5304(4) 0.3016(3) 0.3122(4)
H16 H 0.5476 0.2793 0.3549
B17 B 0.5260(3) 0.3716(3) 0.3110(3)
H17 H 0.5399 0.3954 0.3531
B18 B 0.4589(4) 0.3917(3) 0.2539(3)
H18 H 0.4289 0.4288 0.2580
B19 B 0.4215(4) 0.3326(3) 0.2210(3)
H19 H 0.3664 0.3310 0.2031
B20 B 0.4649(4) 0.2767(4) 0.2571(4)
H20 H 0.4387 0.2382 0.2636
C1 C 0.3529(3) 0.6309(3) 0.2884(3)
C2 C 0.4236(3) 0.6308(3) 0.2701(3)
C3 C 0.5656(3) 0.6345(3) 0.2327(3)
C4 C 0.6367(3) 0.6384(3) 0.2144(3)
C5 C 0.8469(3) 0.5779(3) 0.1516(3)
C6 C 0.8973(3) 0.6142(3) 0.1700(3)
H21 H 0.8871 0.6439 0.1931
C7 C 0.9635(3) 0.6097(3) 0.1565(3)
H22 H 0.9968 0.6351 0.1717
C8 C 0.9791(3) 0.5686(3) 0.1216(3)
H23 H 1.0230 0.5664 0.1113
C9 C 0.9310(3) 0.5293(3) 0.1007(3)
C10 C 0.9434(3) 0.4889(3) 0.0621(3)
H24 H 0.9853 0.4888 0.0478
C11 C 0.8976(3) 0.4483(3) 0.0433(3)
C12 C 0.9102(4) 0.4079(3) 0.0024(3)
H25 H 0.9501 0.4095 -0.0152
C13 C 0.8667(4) 0.3676(3) -0.0118(3)
H26 H 0.8748 0.3424 -0.0413
C14 C 0.8090(3) 0.3619(3) 0.0164(3)
H27 H 0.7804 0.3319 0.0069
C15 C 0.7934(3) 0.3990(3) 0.0573(3)
C16 C 0.8359(3) 0.4456(3) 0.0679(3)
C17 C 0.8211(3) 0.4886(3) 0.1031(3)
H28 H 0.7792 0.4886 0.1175
C18 C 0.8651(3) 0.5320(3) 0.1185(3)
C19 C 0.6028(3) 0.3360(3) 0.1554(3)
C20 C 0.5536(3) 0.3358(3) 0.2017(3)
C21 C 0.4544(3) 0.3341(3) 0.2949(3)
C22 C 0.4063(3) 0.3317(3) 0.3420(3)
C23 C 0.2143(3) 0.3837(3) 0.4435(3)
C24 C 0.2019(3) 0.3444(3) 0.4824(3)
H29 H 0.2326 0.3154 0.4897
C25 C 0.1448(4) 0.3452(3) 0.5125(3)
H30 H 0.1383 0.3173 0.5394
C26 C 0.1002(4) 0.3855(3) 0.5028(3)
H31 H 0.0616 0.3850 0.5222
C27 C 0.1095(3) 0.4288(3) 0.4641(3)
C28 C 0.0623(3) 0.4691(3) 0.4496(3)
H32 H 0.0211 0.4669 0.4652
C29 C 0.0719(3) 0.5122(3) 0.4140(3)
C30 C 0.0219(3) 0.5521(3) 0.3982(3)
H33 H -0.0199 0.5496 0.4125
C31 C 0.0336(3) 0.5935(3) 0.3632(3)
H34 H -0.0014 0.6184 0.3508
C32 C 0.0977(3) 0.6005(3) 0.3442(3)
H35 H 0.1049 0.6310 0.3210
C33 C 0.1489(3) 0.5642(3) 0.3589(3)
C34 C 0.1353(3) 0.5173(3) 0.3916(3)
C35 C 0.1805(3) 0.4742(2) 0.4022(3)
H36 H 0.2209 0.4758 0.3853
C36 C 0.1696(3) 0.4293(3) 0.4362(3)
C37 C 0.6517(5) 0.6713(4) 0.0653(5)
H37 H 0.6389 0.6887 0.1012
H38 H 0.6525 0.6992 0.0343
C38 C 0.5985(5) 0.6300(5) 0.0420(5)
H39 H 0.5545 0.6474 0.0327
H40 H 0.5968 0.6025 0.0726
H41 H 0.6099 0.6134 0.0056
C39 C 0.7887(7) 0.7042(5) 0.0897(6)
H42 H 0.8363 0.6931 0.0920
H43 H 0.7766 0.7257 0.0528
C40 C 0.7824(5) 0.7364(5) 0.1403(4)
H44 H 0.8122 0.7674 0.1412
H45 H 0.7948 0.7154 0.1770
H46 H 0.7357 0.7485 0.1377
C41 C 0.7573(7) 0.6148(5) 0.0150(5)
H50 H 0.8068 0.6101 0.0209
H51 H 0.7369 0.5788 0.0094
C42 C 0.7364(6) 0.6464(5) -0.0423(5)
H52 H 0.7517 0.6279 -0.0759
H53 H 0.7568 0.6820 -0.0379
H54 H 0.6873 0.6498 -0.0500
C48 C 0.7769(4) 0.5877(3) 0.3194(3)
H67 H 0.7315 0.6033 0.3182
H68 H 0.7884 0.5678 0.3574
C49 C 0.8280(4) 0.6322(3) 0.3170(4)
H69 H 0.8277 0.6562 0.3513
H70 H 0.8161 0.6524 0.2797
H71 H 0.8730 0.6168 0.3186
C50 C 0.7100(3) 0.4934(3) 0.2617(3)
H72 H 0.6666 0.5103 0.2454
H73 H 0.7165 0.4632 0.2350
C51 C 0.7031(4) 0.4701(3) 0.3228(3)
H74 H 0.6654 0.4449 0.3184
H75 H 0.6946 0.4990 0.3499
H76 H 0.7447 0.4515 0.3395
C52 C 0.8572(3) 0.5073(3) 0.2706(3)
H77 H 0.8578 0.4805 0.2385
H78 H 0.8926 0.5338 0.2664
C53 C 0.8773(4) 0.4790(3) 0.3307(3)
H79 H 0.9217 0.4625 0.3319
H80 H 0.8441 0.4513 0.3353
H81 H 0.8791 0.5049 0.3634
C54 C 0.6708(3) 0.4825(3) -0.0007(3)
H82 H 0.6806 0.5085 0.0325
H83 H 0.7133 0.4763 -0.0166
C55 C 0.6203(4) 0.5078(3) -0.0503(3)
H84 H 0.6391 0.5410 -0.0635
H85 H 0.5784 0.5156 -0.0349
H86 H 0.6110 0.4831 -0.0842
C56 C 0.5629(3) 0.4337(3) 0.0489(3)
H87 H 0.5323 0.4452 0.0125
H88 H 0.5444 0.4007 0.0639
C57 C 0.5655(3) 0.4769(3) 0.0963(3)
H89 H 0.5201 0.4833 0.1053
H90 H 0.5831 0.5099 0.0814
H91 H 0.5950 0.4654 0.1328
C58 C 0.6316(4) 0.3766(3) -0.0364(3)
H92 H 0.5962 0.3927 -0.0665
H93 H 0.6736 0.3753 -0.0540
C59 C 0.6112(4) 0.3204(3) -0.0241(3)
H94 H 0.6048 0.2999 -0.0615
H95 H 0.5690 0.3211 -0.0075
H96 H 0.6465 0.3037 0.0048
C60 C 0.8830(3) 0.3327(3) 0.1684(3)
H97 H 0.9028 0.3013 0.1913
H98 H 0.8866 0.3265 0.1257
C61 C 0.9248(4) 0.3817(3) 0.1899(3)
H99 H 0.9716 0.3759 0.1843
H100 H 0.9231 0.3876 0.2325
H101 H 0.9067 0.4130 0.1669
C62 C 0.7926(3) 0.3548(3) 0.2532(3)
H102 H 0.8050 0.3930 0.2582
H103 H 0.7458 0.3512 0.2614
C63 C 0.8385(4) 0.3229(3) 0.3001(3)
H104 H 0.8341 0.3360 0.3401
H105 H 0.8853 0.3270 0.2936
H106 H 0.8259 0.2851 0.2968
C64 C 0.7677(3) 0.2668(3) 0.1711(3)
H107 H 0.7985 0.2460 0.2010
H108 H 0.7219 0.2639 0.1817
C65 C 0.7676(4) 0.2427(3) 0.1097(3)
H109 H 0.7532 0.2053 0.1100
H110 H 0.8131 0.2444 0.0994
H111 H 0.7365 0.2626 0.0800
C66 C 0.3315(3) 0.4734(3) 0.5024(3)
H112 H 0.3174 0.4994 0.4698
H113 H 0.2914 0.4647 0.5209
C67 C 0.3843(3) 0.4998(3) 0.5497(3)
H114 H 0.3651 0.5320 0.5651
H115 H 0.4238 0.5096 0.5315
H116 H 0.3979 0.4748 0.5827
C68 C 0.4414(3) 0.4300(3) 0.4492(3)
H117 H 0.4722 0.4417 0.4855
H118 H 0.4614 0.3981 0.4330
C69 C 0.4347(3) 0.4744(3) 0.4028(3)
H119 H 0.4791 0.4829 0.3928
H120 H 0.4157 0.5062 0.4190
H121 H 0.4049 0.4626 0.3666
C70 C 0.3781(4) 0.3690(3) 0.5349(3)
H122 H 0.4100 0.3874 0.5661
H123 H 0.3358 0.3632 0.5513
C71 C 0.4075(4) 0.3147(3) 0.5226(3)
H124 H 0.4157 0.2940 0.5598
H125 H 0.4500 0.3198 0.5073
H126 H 0.3757 0.2955 0.4928
C72 C 0.2169(3) 0.3472(3) 0.2461(3)
H127 H 0.1999 0.3843 0.2420
H128 H 0.2640 0.3476 0.2383
C73 C 0.1750(4) 0.3130(3) 0.1981(3)
H129 H 0.1779 0.3277 0.1584
H130 H 0.1279 0.3130 0.2045
H131 H 0.1922 0.2763 0.2006
C74 C 0.1283(3) 0.3176(3) 0.3305(3)
H132 H 0.1103 0.2865 0.3061
H133 H 0.1253 0.3094 0.3728
C75 C 0.0836(3) 0.3660(3) 0.3112(3)
H134 H 0.0372 0.3582 0.3166
H135 H 0.0849 0.3739 0.2689
H136 H 0.1001 0.3970 0.3357
C76 C 0.2487(3) 0.2571(3) 0.3254(3)
H137 H 0.2187 0.2354 0.2958
H138 H 0.2940 0.2571 0.3135
C77 C 0.2529(4) 0.2314(3) 0.3874(3)
H139 H 0.2703 0.1949 0.3861
H140 H 0.2080 0.2304 0.3989
H141 H 0.2832 0.2524 0.4167
C78 C 0.2661(5) 0.7025(4) 0.3990(4)
H142 H 0.2763 0.7246 0.4356
H143 H 0.3032 0.7076 0.3755
C79 C 0.2021(4) 0.7231(3) 0.3624(4)
H144 H 0.2077 0.7607 0.3526
H145 H 0.1650 0.7195 0.3856
H146 H 0.1918 0.7023 0.3254
C80 C 0.2162(5) 0.6287(5) 0.4804(4)
H150 H 0.2285 0.6597 0.5070
H151 H 0.1685 0.6337 0.4621
C81 C 0.2186(5) 0.5828(4) 0.5181(4)
H154 H 0.1881 0.5879 0.5475
H155 H 0.2646 0.5778 0.5390
H156 H 0.2046 0.5513 0.4936
C82 C 0.3518(5) 0.6231(4) 0.4611(4)
H157 H 0.3562 0.5853 0.4741
H158 H 0.3832 0.6287 0.4320
C83 C 0.3748(5) 0.6578(4) 0.5152(5)
H159 H 0.4213 0.6487 0.5321
H160 H 0.3456 0.6518 0.5454
H161 H 0.3724 0.6954 0.5031
C88 C 0.2104(3) 0.5803(3) 0.1870(3)
H172 H 0.2552 0.5963 0.1860
H173 H 0.1967 0.5610 0.1488
C89 C 0.1599(4) 0.6243(3) 0.1928(3)
H174 H 0.1579 0.6488 0.1588
H175 H 0.1740 0.6440 0.2302
H176 H 0.1154 0.6086 0.1932
C90 C 0.1367(3) 0.4969(3) 0.2373(3)
H177 H 0.1395 0.4685 0.2680
H178 H 0.1010 0.5220 0.2453
C91 C 0.1132(4) 0.4711(3) 0.1765(3)
H179 H 0.0700 0.4530 0.1770
H180 H 0.1467 0.4450 0.1680
H181 H 0.1076 0.4986 0.1453
C92 C 0.2840(3) 0.4867(3) 0.2399(3)
H182 H 0.3273 0.5046 0.2547
H183 H 0.2804 0.4557 0.2664
C93 C 0.2875(4) 0.4655(3) 0.1770(3)
H184 H 0.3259 0.4412 0.1786
H185 H 0.2929 0.4954 0.1503
H186 H 0.2459 0.4462 0.1619
H47? H 0.7724 0.7737 0.1484
H48? H 0.8214 0.7347 0.1192
H49? H 0.7924 0.7168 0.1782
C43? C 0.6435(14) 0.6317(12) 0.0424(11)
H55? H 0.6388 0.5934 0.0315
H56? H 0.6114 0.6394 0.0703
C44? C 0.6240(13) 0.6646(11) -0.0136(11)
H57? H 0.5775 0.6563 -0.0314
H58? H 0.6542 0.6563 -0.0424
H59? H 0.6276 0.7026 -0.0034
C45? C 0.7262(13) 0.7131(11) 0.1044(11)
H60? H 0.7159 0.7341 0.0669
H61? H 0.6870 0.7163 0.1257
C46? C 0.7879(11) 0.6437(10) 0.0288(10)
H62? H 0.7766 0.6755 0.0031
H63? H 0.8348 0.6483 0.0493
C47? C 0.7858(14) 0.5929(11) -0.0137(12)
H64? H 0.8183 0.5976 -0.0414
H65? H 0.7405 0.5889 -0.0366
H66? H 0.7975 0.5609 0.0107
H147? H 0.1724 0.7541 0.3619
H148? H 0.1844 0.6990 0.3295
H149? H 0.2473 0.7349 0.3576
H152? H 0.1794 0.6553 0.4733
H153? H 0.1951 0.5929 0.4792
C84? C 0.2050(16) 0.6960(13) 0.4175(14)
H162? H 0.1592 0.6843 0.4225
H163? H 0.2217 0.7206 0.4508
C85? C 0.2610(16) 0.6389(14) 0.5506(13)
H164? H 0.2306 0.6368 0.5804
H165? H 0.2820 0.6743 0.5524
H166? H 0.2959 0.6115 0.5591
C86? C 0.3427(17) 0.6667(16) 0.4402(16)
H167? H 0.3553 0.6841 0.4042
H168? H 0.3389 0.6945 0.4706
C87? C 0.3956(16) 0.6261(13) 0.4649(14)
H169? H 0.4394 0.6438 0.4745
H170? H 0.3981 0.5982 0.4349
H171? H 0.3836 0.6100 0.5013
O11? O 0.0839(7) 0.3569(5) 1.0376(6)
C100? C 0.0299(12) 0.2880(10) 0.9652(6)
H199? H 0.0459 0.3128 0.9369
H200? H -0.0194 0.2890 0.9599
H201? H 0.0448 0.2517 0.9576
C101? C 0.0470(8) 0.2724(6) 1.0831(6)
H202? H 0.0760 0.2865 1.1187
H203? H 0.0579 0.2348 1.0775
H204? H -0.0003 0.2755 1.0885
O12? O 0.0713(6) 0.6448(4) 0.5435(5)
C102? C 0.0177(9) 0.7150(7) 0.4685(5)
H205? H 0.0305 0.6900 0.4389
H206? H 0.0335 0.7509 0.4604
H207? H -0.0314 0.7154 0.4657
C103? C 0.0365(7) 0.7318(5) 0.5868(5)
H208? H 0.0603 0.7166 0.6242
H209? H -0.0120 0.7323 0.5880
H210? H 0.0523 0.7683 0.5820
loop_
_geom_bond_atom_site_label_1
_geom_bond_atom_site_label_2
_geom_bond_site_symmetry_1
_geom_bond_site_symmetry_2
Pt1 P1 1_555 1_555
Pt2 P3 1_555 1_555
Pt3 P5 1_555 1_555
Pt4 P7 1_555 1_555
P1 C37 1_555 1_555
P2 Pt1 1_555 1_555
P3 C54 1_555 1_555
P4 Pt2 1_555 1_555
P5 C66 1_555 1_555
P6 Pt3 1_555 1_555
P7 C78 1_555 1_555
P8 Pt4 1_555 1_555
O1 C1 1_555 1_555
O2 Pt4 1_555 1_555
O3 Pt1 1_555 1_555
O4 C4 1_555 1_555
O5 Pt2 1_555 1_555
O6 C19 1_555 1_555
O7 Pt3 1_555 1_555
O8 C22 1_555 1_555
B1 H1 1_555 1_555
B2 B1 1_555 1_555
H2 B2 1_555 1_555
B3 B2 1_555 1_555
H3 B3 1_555 1_555
B4 B3 1_555 1_555
H4 B4 1_555 1_555
B5 B1 1_555 1_555
H5 B5 1_555 1_555
B6 B1 1_555 1_555
H6 B6 1_555 1_555
B7 B2 1_555 1_555
H7 B7 1_555 1_555
B8 B3 1_555 1_555
H8 B8 1_555 1_555
B9 B4 1_555 1_555
H9 B9 1_555 1_555
B10 B1 1_555 1_555
H10 B10 1_555 1_555
B11 H11 1_555 1_555
B12 B11 1_555 1_555
H12 B12 1_555 1_555
B13 B12 1_555 1_555
H13 B13 1_555 1_555
B14 B13 1_555 1_555
H14 B14 1_555 1_555
B15 B11 1_555 1_555
H15 B15 1_555 1_555
B16 B11 1_555 1_555
H16 B16 1_555 1_555
B17 B11 1_555 1_555
H17 B17 1_555 1_555
B18 B12 1_555 1_555
H18 B18 1_555 1_555
B19 B13 1_555 1_555
H19 B19 1_555 1_555
B20 B14 1_555 1_555
H20 B20 1_555 1_555
C1 O2 1_555 1_555
C2 B1 1_555 1_555
C3 B6 1_555 1_555
C4 O3 1_555 1_555
C5 Pt1 1_555 1_555
C6 C5 1_555 1_555
H21 C6 1_555 1_555
C7 C6 1_555 1_555
H22 C7 1_555 1_555
C8 C7 1_555 1_555
H23 C8 1_555 1_555
C9 C8 1_555 1_555
C10 C9 1_555 1_555
H24 C10 1_555 1_555
C11 C10 1_555 1_555
C12 C11 1_555 1_555
H25 C12 1_555 1_555
C13 C12 1_555 1_555
H26 C13 1_555 1_555
C14 C13 1_555 1_555
H27 C14 1_555 1_555
C15 Pt2 1_555 1_555
C16 C11 1_555 1_555
C17 C16 1_555 1_555
H28 C17 1_555 1_555
C18 C5 1_555 1_555
C19 O5 1_555 1_555
C20 B11 1_555 1_555
C21 B16 1_555 1_555
C22 O7 1_555 1_555
C23 Pt3 1_555 1_555
C24 C23 1_555 1_555
H29 C24 1_555 1_555
C25 C24 1_555 1_555
H30 C25 1_555 1_555
C26 C25 1_555 1_555
H31 C26 1_555 1_555
C27 C26 1_555 1_555
C28 C27 1_555 1_555
H32 C28 1_555 1_555
C29 C28 1_555 1_555
C30 C29 1_555 1_555
H33 C30 1_555 1_555
C31 C30 1_555 1_555
H34 C31 1_555 1_555
C32 C31 1_555 1_555
H35 C32 1_555 1_555
C33 Pt4 1_555 1_555
C34 C29 1_555 1_555
C35 C34 1_555 1_555
H36 C35 1_555 1_555
C36 C23 1_555 1_555
C37 H37 1_555 1_555
H38 C37 1_555 1_555
C38 C37 1_555 1_555
H39 C38 1_555 1_555
H40 C38 1_555 1_555
H41 C38 1_555 1_555
C39 P1 1_555 1_555
H42 C39 1_555 1_555
H43 C39 1_555 1_555
C40 C39 1_555 1_555
H44 C40 1_555 1_555
H45 C40 1_555 1_555
H46 C40 1_555 1_555
C41 P1 1_555 1_555
H50 C41 1_555 1_555
H51 C41 1_555 1_555
C42 C41 1_555 1_555
H52 C42 1_555 1_555
H53 C42 1_555 1_555
H54 C42 1_555 1_555
C48 P2 1_555 1_555
H67 C48 1_555 1_555
H68 C48 1_555 1_555
C49 C48 1_555 1_555
H69 C49 1_555 1_555
H70 C49 1_555 1_555
H71 C49 1_555 1_555
C50 P2 1_555 1_555
H72 C50 1_555 1_555
H73 C50 1_555 1_555
C51 C50 1_555 1_555
H74 C51 1_555 1_555
H75 C51 1_555 1_555
H76 C51 1_555 1_555
C52 P2 1_555 1_555
H77 C52 1_555 1_555
H78 C52 1_555 1_555
C53 C52 1_555 1_555
H79 C53 1_555 1_555
H80 C53 1_555 1_555
H81 C53 1_555 1_555
C54 H82 1_555 1_555
H83 C54 1_555 1_555
C55 C54 1_555 1_555
H84 C55 1_555 1_555
H85 C55 1_555 1_555
H86 C55 1_555 1_555
C56 P3 1_555 1_555
H87 C56 1_555 1_555
H88 C56 1_555 1_555
C57 C56 1_555 1_555
H89 C57 1_555 1_555
H90 C57 1_555 1_555
H91 C57 1_555 1_555
C58 P3 1_555 1_555
H92 C58 1_555 1_555
H93 C58 1_555 1_555
C59 C58 1_555 1_555
H94 C59 1_555 1_555
H95 C59 1_555 1_555
H96 C59 1_555 1_555
C60 P4 1_555 1_555
H97 C60 1_555 1_555
H98 C60 1_555 1_555
C61 C60 1_555 1_555
H99 C61 1_555 1_555
H100 C61 1_555 1_555
H101 C61 1_555 1_555
C62 P4 1_555 1_555
H102 C62 1_555 1_555
H103 C62 1_555 1_555
C63 C62 1_555 1_555
H104 C63 1_555 1_555
H105 C63 1_555 1_555
H106 C63 1_555 1_555
C64 P4 1_555 1_555
H107 C64 1_555 1_555
H108 C64 1_555 1_555
C65 C64 1_555 1_555
H109 C65 1_555 1_555
H110 C65 1_555 1_555
H111 C65 1_555 1_555
C66 H112 1_555 1_555
H113 C66 1_555 1_555
C67 C66 1_555 1_555
H114 C67 1_555 1_555
H115 C67 1_555 1_555
H116 C67 1_555 1_555
C68 P5 1_555 1_555
H117 C68 1_555 1_555
H118 C68 1_555 1_555
C69 C68 1_555 1_555
H119 C69 1_555 1_555
H120 C69 1_555 1_555
H121 C69 1_555 1_555
C70 P5 1_555 1_555
H122 C70 1_555 1_555
H123 C70 1_555 1_555
C71 C70 1_555 1_555
H124 C71 1_555 1_555
H125 C71 1_555 1_555
H126 C71 1_555 1_555
C72 P6 1_555 1_555
H127 C72 1_555 1_555
H128 C72 1_555 1_555
C73 C72 1_555 1_555
H129 C73 1_555 1_555
H130 C73 1_555 1_555
H131 C73 1_555 1_555
C74 P6 1_555 1_555
H132 C74 1_555 1_555
H133 C74 1_555 1_555
C75 C74 1_555 1_555
H134 C75 1_555 1_555
H135 C75 1_555 1_555
H136 C75 1_555 1_555
C76 P6 1_555 1_555
H137 C76 1_555 1_555
H138 C76 1_555 1_555
C77 C76 1_555 1_555
H139 C77 1_555 1_555
H140 C77 1_555 1_555
H141 C77 1_555 1_555
C78 H142 1_555 1_555
H143 C78 1_555 1_555
C79 C78 1_555 1_555
H144 C79 1_555 1_555
H145 C79 1_555 1_555
H146 C79 1_555 1_555
C80 P7 1_555 1_555
H150 C80 1_555 1_555
H151 C80 1_555 1_555
C81 C80 1_555 1_555
H154 C81 1_555 1_555
H155 C81 1_555 1_555
H156 C81 1_555 1_555
C82 P7 1_555 1_555
H157 C82 1_555 1_555
H158 C82 1_555 1_555
C83 C82 1_555 1_555
H159 C83 1_555 1_555
H160 C83 1_555 1_555
H161 C83 1_555 1_555
C88 P8 1_555 1_555
H172 C88 1_555 1_555
H173 C88 1_555 1_555
C89 C88 1_555 1_555
H174 C89 1_555 1_555
H175 C89 1_555 1_555
H176 C89 1_555 1_555
C90 P8 1_555 1_555
H177 C90 1_555 1_555
H178 C90 1_555 1_555
C91 C90 1_555 1_555
H179 C91 1_555 1_555
H180 C91 1_555 1_555
H181 C91 1_555 1_555
C92 P8 1_555 1_555
H182 C92 1_555 1_555
H183 C92 1_555 1_555
C93 C92 1_555 1_555
H184 C93 1_555 1_555
H185 C93 1_555 1_555
H186 C93 1_555 1_555
O9 C95 1_555 1_555
C94 H187 1_555 1_555
H188 C94 1_555 1_555
H189 C94 1_555 1_555
C95 C94 1_555 1_555
C96 C95 1_555 1_555
H190 C96 1_555 1_555
H191 C96 1_555 1_555
H192 C96 1_555 1_555
O10 C98 1_555 1_555
C97 H193 1_555 1_555
H194 C97 1_555 1_555
H195 C97 1_555 1_555
C98 C97 1_555 1_555
C99 C98 1_555 1_555
H196 C99 1_555 1_555
H197 C99 1_555 1_555
H198 C99 1_555 1_555
B2 B6 1_555 1_555
B2 C2 1_555 1_555
B3 B7 1_555 1_555
B3 C2 1_555 1_555
B4 B5 1_555 1_555
B4 B8 1_555 1_555
B4 C2 1_555 1_555
B5 B9 1_555 1_555
B5 B10 1_555 1_555
B5 C2 1_555 1_555
B6 B7 1_555 1_555
B6 B10 1_555 1_555
B7 B8 1_555 1_555
B7 C3 1_555 1_555
B8 B9 1_555 1_555
B8 C3 1_555 1_555
B9 B10 1_555 1_555
B9 C3 1_555 1_555
B10 C3 1_555 1_555
B12 B17 1_555 1_555
B12 C20 1_555 1_555
B13 B18 1_555 1_555
B13 C20 1_555 1_555
B14 B15 1_555 1_555
B14 B19 1_555 1_555
B14 C20 1_555 1_555
B15 B16 1_555 1_555
B15 B20 1_555 1_555
B15 C20 1_555 1_555
B16 B17 1_555 1_555
B16 B20 1_555 1_555
B17 B18 1_555 1_555
B17 C21 1_555 1_555
B18 B19 1_555 1_555
B18 C21 1_555 1_555
B19 B20 1_555 1_555
B19 C21 1_555 1_555
B20 C21 1_555 1_555
C1 C2 1_555 1_555
C3 C4 1_555 1_555
C9 C18 1_555 1_555
C14 C15 1_555 1_555
C15 C16 1_555 1_555
C17 C18 1_555 1_555
C19 C20 1_555 1_555
C21 C22 1_555 1_555
C27 C36 1_555 1_555
C32 C33 1_555 1_555
C33 C34 1_555 1_555
C35 C36 1_555 1_555

#END
