
#######################################################################
#
#                 Cambridge Crystallographic Data Centre
#                                CCDC 
#
#######################################################################
#
# If this CIF has been generated from an entry in the Cambridge 
# Structural Database, then it will include bibliographic, chemical, 
# crystal, experimental, refinement or atomic coordinate data resulting 
# from the CCDC's data processing and validation procedures.
#
#######################################################################

data_KEFPAM
_chemical_formula_moiety         'C32 H62 N4 O12 V2'
_chemical_name_systematic        
bis((\m~2~-N,N'-Dioxy-N,N'-di-isopropylheptanediamido-N,O)-isopropoxy-oxo-vanadium(v))
_symmetry_cell_setting           monoclinic
_symmetry_space_group_name_H-M   'P 21/c'
_symmetry_Int_Tables_number      14
_space_group_name_Hall           '-P 2ybc'
loop_
_symmetry_equiv_pos_site_id
_symmetry_equiv_pos_as_xyz
1 x,y,z
2 -x,1/2+y,1/2-z
3 -x,-y,-z
4 x,1/2-y,1/2+z
_cell_length_a                   8.2170(10)
_cell_length_b                   15.7946(15)
_cell_length_c                   16.2124(19)
_cell_angle_alpha                90
_cell_angle_beta                 97.48(1)
_cell_angle_gamma                90
_cell_volume                     2086.21
_exptl_crystal_colour            orange-red
_cell_formula_units_Z            2
loop_
_atom_site_label
_atom_site_type_symbol
_atom_site_fract_x
_atom_site_fract_y
_atom_site_fract_z
V1 V 0.0020(1) 0.29317(6) -0.18808(7)
O1 O 0.0954(5) 0.3571(2) -0.2415(3)
O2 O 0.1222(5) 0.3262(2) -0.0863(3)
O3 O -0.0953(5) 0.2103(3) -0.0983(2)
O4 O 0.1678(5) 0.1968(2) -0.1857(3)
O5 O -0.1073(5) 0.2130(2) -0.2673(2)
O6 O -0.1899(5) 0.3496(3) -0.1942(3)
N1 N 0.0957(7) 0.2825(4) -0.0156(3)
N2 N -0.0372(6) 0.1339(3) -0.2630(3)
C1 C 0.268(1) 0.3812(6) 0.0676(5)
C2 C 0.231(1) 0.2886(6) 0.0523(5)
C3 C 0.372(1) 0.2365(7) 0.0274(7)
C4 C -0.0216(8) 0.2204(4) -0.0294(4)
C5 C -0.055(1) 0.1663(5) 0.0455(5)
C6 C -0.2095(9) 0.1118(5) 0.0210(5)
C7 C -0.263(1) 0.0654(5) 0.0955(5)
C8 C -0.1547(9) -0.0056(4) 0.1232(4)
C9 C -0.2035(9) -0.0479(4) 0.2023(4)
C10 C 0.1069(7) 0.1290(4) -0.2192(4)
C11 C -0.1455(9) 0.0650(4) -0.2962(4)
C12 C -0.208(1) 0.0816(6) -0.3882(5)
C13 C -0.286(1) 0.0580(5) -0.2458(5)
C14 C -0.347(1) 0.3264(5) -0.1711(5)
C15 C -0.473(1) 0.3156(6) -0.2482(6)
C16 C -0.405(1) 0.3949(8) -0.1169(6)
C10B C -0.1069(7) -0.1290(4) 0.2192(4)
C9B C 0.2035(9) 0.0479(4) -0.2023(4)
O4B O -0.1678(5) -0.1968(2) 0.1857(3)
N2B N 0.0372(6) -0.1339(3) 0.2630(3)
C8B C 0.1547(9) 0.0056(4) -0.1232(4)
V1B V -0.0020(1) -0.29317(6) 0.18808(7)
O5B O 0.1073(5) -0.2130(2) 0.2673(2)
C11B C 0.1455(9) -0.0650(4) 0.2962(4)
C7B C 0.263(1) -0.0654(5) -0.0955(5)
O1B O -0.0954(5) -0.3571(2) 0.2415(3)
O2B O -0.1222(5) -0.3262(2) 0.0863(3)
O3B O 0.0953(5) -0.2103(3) 0.0983(2)
O6B O 0.1899(5) -0.3496(3) 0.1942(3)
C12B C 0.208(1) -0.0816(6) 0.3882(5)
C13B C 0.286(1) -0.0580(5) 0.2458(5)
C6B C 0.2095(9) -0.1118(5) -0.0210(5)
N1B N -0.0957(7) -0.2825(4) 0.0156(3)
C4B C 0.0216(8) -0.2204(4) 0.0294(4)
C14B C 0.347(1) -0.3264(5) 0.1711(5)
C5B C 0.055(1) -0.1663(5) -0.0455(5)
C2B C -0.231(1) -0.2886(6) -0.0523(5)
C15B C 0.473(1) -0.3156(6) 0.2482(6)
C16B C 0.405(1) -0.3949(8) 0.1169(6)
C1B C -0.268(1) -0.3812(6) -0.0676(5)
C3B C -0.372(1) -0.2365(7) -0.0274(7)
loop_
_geom_bond_atom_site_label_1
_geom_bond_atom_site_label_2
_geom_bond_site_symmetry_1
_geom_bond_site_symmetry_2
V1 O1 1_555 1_555
O2 V1 1_555 1_555
O3 V1 1_555 1_555
O4 V1 1_555 1_555
O5 V1 1_555 1_555
O6 V1 1_555 1_555
N1 O2 1_555 1_555
N2 O5 1_555 1_555
C1 C2 1_555 1_555
C2 N1 1_555 1_555
C3 C2 1_555 1_555
C4 O3 1_555 1_555
C5 C4 1_555 1_555
C6 C5 1_555 1_555
C7 C6 1_555 1_555
C8 C7 1_555 1_555
C9 C8 1_555 1_555
C10 O4 1_555 1_555
C11 N2 1_555 1_555
C12 C11 1_555 1_555
C13 C11 1_555 1_555
C14 O6 1_555 1_555
C15 C14 1_555 1_555
C16 C14 1_555 1_555
C10B C9 1_555 1_555
C9B C10 1_555 1_555
O4B C10B 1_555 1_555
N2B C10B 1_555 1_555
C8B C9B 1_555 1_555
V1B O4B 1_555 1_555
O5B N2B 1_555 1_555
C11B N2B 1_555 1_555
C7B C8B 1_555 1_555
O1B V1B 1_555 1_555
O2B V1B 1_555 1_555
O3B V1B 1_555 1_555
O6B V1B 1_555 1_555
C12B C11B 1_555 1_555
C13B C11B 1_555 1_555
C6B C7B 1_555 1_555
N1B O2B 1_555 1_555
C4B O3B 1_555 1_555
C14B O6B 1_555 1_555
C5B C6B 1_555 1_555
C2B N1B 1_555 1_555
C15B C14B 1_555 1_555
C16B C14B 1_555 1_555
C1B C2B 1_555 1_555
C3B C2B 1_555 1_555
N1 C4 1_555 1_555
N2 C10 1_555 1_555
V1B O5B 1_555 1_555
N1B C4B 1_555 1_555
C4B C5B 1_555 1_555

#END
