
#######################################################################
#
#                 Cambridge Crystallographic Data Centre
#                                CCDC 
#
#######################################################################
#
# If this CIF has been generated from an entry in the Cambridge 
# Structural Database, then it will include bibliographic, chemical, 
# crystal, experimental, refinement or atomic coordinate data resulting 
# from the CCDC's data processing and validation procedures.
#
#######################################################################

data_KEZRIQ
_chemical_formula_moiety         'C84 H96 N36 Pd6 12+,3(C14 H12),12(N1 O3 1-)'
_chemical_name_systematic        
'tetrakis(\m~3~-2,4,6-tris(3-Pyridyl)triazine)-hexakis((ethane-1,2-diamine)-palladium) tris(cis-stibene) clathrate dodecanitrate'
_symmetry_cell_setting           monoclinic
_symmetry_space_group_name_H-M   'P 21/c'
_symmetry_Int_Tables_number      14
_space_group_name_Hall           '-P 2ybc'
loop_
_symmetry_equiv_pos_site_id
_symmetry_equiv_pos_as_xyz
1 x,y,z
2 x,1/2-y,1/2+z
3 -x,-y,-z
4 -x,1/2+y,1/2-z
_cell_length_a                   20.182(7)
_cell_length_b                   36.508(13)
_cell_length_c                   25.441(9)
_cell_angle_alpha                90
_cell_angle_beta                 100.079(7)
_cell_angle_gamma                90
_cell_volume                     18455.8
_cell_formula_units_Z            4
loop_
_atom_site_label
_atom_site_type_symbol
_atom_site_fract_x
_atom_site_fract_y
_atom_site_fract_z
Pd1 Pd 1.11393(5) 0.18984(3) 0.23315(5)
Pd2 Pd 0.86697(6) -0.06772(3) 0.03851(4)
Pd3 Pd 1.13604(6) -0.16395(3) 0.17414(5)
Pd4 Pd 0.58139(7) -0.15787(4) 0.35688(6)
Pd5 Pd 0.57141(7) 0.12307(4) 0.18202(6)
Pd6 Pd 0.57865(8) 0.19350(4) 0.43931(7)
N1 N 0.7817(6) 0.1659(3) 0.3326(4)
N2 N 0.8849(5) 0.1855(3) 0.3839(5)
N3 N 0.8825(5) 0.1631(3) 0.2960(4)
C1 C 0.8148(6) 0.1594(3) 0.2933(5)
C2 C 0.8183(7) 0.1792(4) 0.3765(6)
C3 C 0.9142(7) 0.1779(3) 0.3413(5)
N4 N 1.0793(5) 0.1898(2) 0.3016(5)
C4 C 0.9866(6) 0.1856(3) 0.3473(5)
C5 C 1.0155(6) 0.1825(3) 0.3030(6)
H1 H 0.9879 0.1746 0.2708
C6 C 1.1190(8) 0.2005(4) 0.3485(7)
H2 H 1.1652 0.2055 0.3488
C7 C 1.0937(8) 0.2042(4) 0.3951(7)
H3 H 1.1216 0.2120 0.4271
C8 C 1.0240(7) 0.1961(4) 0.3938(6)
H4 H 1.0047 0.1981 0.4252
N5 N 0.6742(6) 0.1263(3) 0.1940(5)
C9 C 0.7785(7) 0.1444(4) 0.2453(6)
C10 C 0.7089(7) 0.1391(4) 0.2392(5)
H5 H 0.6862 0.1448 0.2679
C11 C 0.7056(10) 0.1162(6) 0.1521(7)
H6 H 0.6800 0.1069 0.1200
C12 C 0.7748(8) 0.1199(6) 0.1575(7)
H7 H 0.7974 0.1118 0.1298
C13 C 0.8099(8) 0.1350(5) 0.2023(6)
H8 H 0.8567 0.1394 0.2047
N6 N 0.6788(7) 0.1947(3) 0.4521(5)
C14 C 0.7808(8) 0.1883(4) 0.4215(6)
C15 C 0.7128(8) 0.1864(4) 0.4131(6)
H9 H 0.6890 0.1790 0.3792
C16 C 0.7142(11) 0.2052(5) 0.4985(8)
H10 H 0.6897 0.2120 0.5256
C17 C 0.7832(11) 0.2070(6) 0.5108(8)
H11 H 0.8052 0.2125 0.5460
C18 C 0.8186(9) 0.2008(6) 0.4719(8)
H12 H 0.8659 0.2044 0.4771
N7 N 1.0879(6) -0.0200(3) 0.1745(5)
N8 N 1.0793(6) 0.0447(3) 0.1859(5)
N9 N 1.1807(5) 0.0131(3) 0.2205(5)
C19 C 1.1489(7) -0.0177(3) 0.1995(6)
C20 C 1.0549(7) 0.0128(3) 0.1671(5)
C21 C 1.1430(7) 0.0426(4) 0.2128(6)
N10 N 1.1887(6) -0.1174(3) 0.1992(5)
C22 C 1.1855(6) -0.0530(3) 0.2070(6)
C23 C 1.1557(7) -0.0844(3) 0.1899(5)
H13 H 1.1107 -0.0841 0.1709
C24 C 1.2508(7) -0.1179(4) 0.2227(9)
H14 H 1.2728 -0.1409 0.2282
C25 C 1.2857(9) -0.0881(5) 0.2397(10)
H15 H 1.3315 -0.0897 0.2564
C26 C 1.2521(9) -0.0530(4) 0.2322(9)
H16 H 1.2747 -0.0309 0.2441
N11 N 0.8980(6) -0.0209(3) 0.0753(4)
C27 C 0.9859(7) 0.0129(3) 0.1344(5)
C28 C 0.9566(8) -0.0190(3) 0.1083(5)
H17 H 0.9813 -0.0411 0.1151
C29 C 0.8664(7) 0.0105(4) 0.0692(6)
H18 H 0.8236 0.0110 0.0467
C30 C 0.8887(8) 0.0413(4) 0.0914(7)
H19 H 0.8617 0.0626 0.0837
C31 C 0.9492(7) 0.0444(3) 0.1252(5)
H20 H 0.9646 0.0671 0.1413
N12 N 1.1644(6) 0.1425(3) 0.2501(6)
C32 C 1.1725(7) 0.0776(3) 0.2361(6)
C33 C 1.1396(7) 0.1100(4) 0.2295(7)
H21 H 1.0956 0.1100 0.2088
C34 C 1.2231(8) 0.1424(5) 0.2809(9)
H22 H 1.2413 0.1648 0.2960
C35 C 1.2600(8) 0.1100(4) 0.2923(9)
H23 H 1.3019 0.1104 0.3160
C36 C 1.2360(8) 0.0780(5) 0.2695(7)
H24 H 1.2617 0.0561 0.2760
N13 N 0.9000(5) -0.1307(3) 0.2327(4)
N14 N 0.7960(6) -0.1354(3) 0.2615(5)
N15 N 0.8942(6) -0.1578(3) 0.3145(4)
C37 C 0.9273(6) -0.1479(3) 0.2756(5)
C38 C 0.8290(7) -0.1507(3) 0.3051(6)
C39 C 0.8360(7) -0.1246(3) 0.2259(6)
N16 N 1.0924(6) -0.1628(3) 0.2403(5)
C40 C 0.9968(7) -0.1559(3) 0.2812(5)
C41 C 1.0290(6) -0.1532(3) 0.2391(6)
H25 H 1.0046 -0.1439 0.2065
C42 C 1.1317(9) -0.1762(4) 0.2891(7)
H26 H 1.1770 -0.1837 0.2907
C43 C 1.0996(8) -0.1778(4) 0.3356(6)
H27 H 1.1232 -0.1854 0.3695
C44 C 1.0347(8) -0.1680(4) 0.3281(7)
H28 H 1.0127 -0.1697 0.3581
N17 N 0.6793(8) -0.1655(3) 0.3727(5)
C45 C 0.7903(8) -0.1621(3) 0.3473(6)
C46 C 0.7200(8) -0.1574(3) 0.3371(6)
H29 H 0.6998 -0.1480 0.3032
C47 C 0.7113(9) -0.1801(5) 0.4174(7)
H30 H 0.6844 -0.1868 0.4430
C48 C 0.7810(10) -0.1869(4) 0.4313(6)
H31 H 0.8005 -0.1976 0.4645
C49 C 0.8196(8) -0.1765(4) 0.3925(6)
H32 H 0.8670 -0.1801 0.3992
N18 N 0.8094(5) -0.0788(3) 0.0923(4)
C50 C 0.7994(7) -0.1064(4) 0.1761(6)
C51 C 0.8381(6) -0.0951(4) 0.1390(5)
H33 H 0.8854 -0.0989 0.1462
C52 C 0.7453(8) -0.0737(4) 0.0840(7)
H34 H 0.7268 -0.0615 0.0518
C53 C 0.7003(9) -0.0841(6) 0.1167(7)
H35 H 0.6532 -0.0797 0.1086
C54 C 0.7333(8) -0.1021(5) 0.1643(7)
H36 H 0.7065 -0.1114 0.1885
N19 N 0.5828(6) -0.0102(3) 0.3569(5)
N20 N 0.5854(6) 0.0130(4) 0.4461(5)
N21 N 0.5771(6) 0.0534(3) 0.3721(5)
C55 C 0.5778(6) 0.0239(4) 0.3416(6)
C56 C 0.5841(7) -0.0145(4) 0.4118(6)
C57 C 0.5794(6) 0.0464(4) 0.4231(6)
N22 N 0.5740(6) 0.0709(4) 0.2116(6)
C58 C 0.5759(7) 0.0300(4) 0.2842(7)
C59 C 0.5743(7) 0.0644(5) 0.2638(6)
H37 H 0.5733 0.0846 0.2871
C60 C 0.5697(10) 0.0423(5) 0.1785(7)
H38 H 0.5686 0.0463 0.1414
C61 C 0.5667(11) 0.0056(6) 0.1977(9)
H39 H 0.5631 -0.0146 0.1738
C62 C 0.5693(9) 0.0005(5) 0.2495(7)
H40 H 0.5665 -0.0237 0.2630
N23 N 0.5897(6) -0.1178(3) 0.4124(5)
C63 C 0.5871(6) -0.0541(4) 0.4309(6)
C64 C 0.5859(7) -0.0828(5) 0.3966(6)
H41 H 0.5820 -0.0777 0.3595
C65 C 0.5901(8) -0.1256(5) 0.4623(8)
H42 H 0.5879 -0.1505 0.4726
C66 C 0.5936(9) -0.0986(5) 0.5006(7)
H43 H 0.5972 -0.1045 0.5373
C67 C 0.5917(8) -0.0624(5) 0.4838(7)
H44 H 0.5935 -0.0433 0.5093
N24 N 0.5796(7) 0.1415(4) 0.4692(6)
C68 C 0.5795(7) 0.0765(4) 0.4591(6)
C69 C 0.5758(7) 0.1114(4) 0.4384(6)
H45 H 0.5704 0.1144 0.4008
C70 C 0.5810(10) 0.1353(6) 0.5201(8)
H46 H 0.5778 0.1561 0.5421
C71 C 0.5865(10) 0.1019(5) 0.5445(8)
H47 H 0.5910 0.0999 0.5822
C72 C 0.5854(9) 0.0707(5) 0.5127(7)
H48 H 0.5887 0.0468 0.5276
N25 N 1.1429(9) 0.1929(4) 0.1614(7)
H49 H 1.187(9) 0.186(4) 0.164(7)
H50 H 1.117(8) 0.178(5) 0.137(7)
N26 N 1.0701(7) 0.2381(3) 0.2123(5)
H51 H 1.027(7) 0.238(4) 0.219(5)
H52 H 1.093(7) 0.256(4) 0.233(6)
C73 C 1.1330(12) 0.2316(6) 0.1443(9)
H53 H 1.171(9) 0.247(5) 0.163(7)
H54 H 1.133(9) 0.234(5) 0.105(8)
C74 C 1.0694(12) 0.2456(5) 0.1564(8)
H55 H 1.031(9) 0.233(5) 0.134(7)
H56 H 1.066(9) 0.272(5) 0.149(7)
N27 N 0.8347(10) -0.1126(4) -0.0065(5)
H57 H 0.833(9) -0.133(5) 0.015(7)
H58 H 0.793(9) -0.108(5) -0.026(7)
N28 N 0.9256(9) -0.0604(5) -0.0171(6)
H59 H 0.918(8) -0.038(5) -0.033(7)
H60 H 0.970(9) -0.062(5) -0.001(7)
C75 C 0.8798(17) -0.1190(7) -0.0400(10)
H61 H 0.856(11) -0.133(6) -0.071(9)
H62 H 0.916(12) -0.135(6) -0.021(9)
C76 C 0.910(2) -0.0891(7) -0.0579(9)
H63 H 0.880(13) -0.079(7) -0.089(11)
H64 H 0.952(13) -0.097(7) -0.070(11)
N29 N 1.1746(10) -0.1670(4) 0.1070(8)
H65 H 1.158(9) -0.149(5) 0.084(7)
H66 H 1.221(10) -0.165(5) 0.115(8)
N30 N 1.0845(9) -0.2102(3) 0.1464(6)
H67 H 1.098(8) -0.230(4) 0.169(6)
H68 H 1.039(8) -0.207(4) 0.145(6)
C77 C 1.156(2) -0.2026(8) 0.0831(14)
H69 H 1.151(15) -0.200(8) 0.044(11)
H70 H 1.193(14) -0.220(8) 0.095(12)
C78 C 1.0988(16) -0.2174(6) 0.0943(8)
H71 H 1.101(10) -0.244(6) 0.090(8)
H72 H 1.061(10) -0.208(6) 0.068(8)
N31 N 0.5701(12) -0.1965(6) 0.2987(9)
H73 H 0.588(12) -0.188(6) 0.270(9)
H74 H 0.592(12) -0.218(6) 0.311(9)
N32 N 0.4797(9) -0.1503(6) 0.3334(9)
H75 H 0.457(11) -0.161(5) 0.358(8)
H76 H 0.470(10) -0.126(5) 0.331(8)
C79 C 0.4955(14) -0.2044(9) 0.2813(11)
H77 H 0.487(11) -0.215(6) 0.245(9)
H78 H 0.479(12) -0.221(6) 0.307(9)
C80 C 0.4603(16) -0.1675(12) 0.2810(13)
H79 H 0.473(14) -0.152(7) 0.253(11)
H80 H 0.411(14) -0.171(7) 0.273(10)
N33 N 0.4679(7) 0.1273(9) 0.1679(12)
H81 H 0.449(16) 0.109(8) 0.146(14)
H82 H 0.451(16) 0.126(10) 0.199(13)
N34 N 0.5635(11) 0.1758(6) 0.1531(11)
H83 H 0.589(12) 0.191(6) 0.177(9)
H84 H 0.578(12) 0.177(6) 0.121(10)
C81 C 0.4538(11) 0.1629(13) 0.1424(13)
H85 H 0.44(7) 0.16(4) 0.10(4)
H86 H 0.42(6) 0.17(4) 0.16(5)
C82 C 0.4997(14) 0.1848(9) 0.147(3)
H87 H 0.49(5) 0.20(2) 0.18(3)
H88 H 0.49(4) 0.20(2) 0.12(4)
N35 N 0.4798(13) 0.1980(7) 0.4286(13)
H89 H 0.461(14) 0.175(7) 0.419(12)
H90 H 0.468(15) 0.205(8) 0.461(11)
N36 N 0.5727(14) 0.2447(7) 0.4076(12)
H91 H 0.597(14) 0.261(7) 0.431(11)
H92 H 0.590(14) 0.245(8) 0.376(11)
C83 C 0.456(2) 0.220(3) 0.395(3)
H93 H 0.41(3) 0.227(18) 0.40(3)
H94 H 0.45(3) 0.209(19) 0.36(2)
C84 C 0.500(3) 0.2549(16) 0.397(3)
H95 H 0.49(2) 0.268(15) 0.36(2)
H96 H 0.49(3) 0.271(14) 0.43(2)
N37 N -0.0289(10) 0.1435(4) 0.1326(10)
O1 O 0.0157(11) 0.1537(8) 0.1141(11)
O2 O -0.0866(8) 0.1338(4) 0.1080(7)
O3 O -0.0156(9) 0.1373(6) 0.1797(9)
C85 C -0.1719(12) 0.0140(6) 0.6549(8)
C86 C -0.1727(14) 0.0536(7) 0.6601(9)
H97 H -0.2130 0.0675 0.6515
C87 C -0.1114(15) 0.0699(6) 0.6782(10)
H98 H -0.1074 0.0958 0.6790
C88 C -0.0548(11) 0.0476(7) 0.6955(9)
H99 H -0.0128 0.0573 0.7125
C89 C -0.0645(12) 0.0116(5) 0.6863(9)
H100 H -0.0248 -0.0028 0.6943
C90 C -0.1177(9) -0.0068(5) 0.6688(7)
H101 H -0.1183 -0.0327 0.6659
C91 C -0.2456(12) -0.0054(6) 0.6318(10)
H102 H -0.2827 0.0069 0.6421
C92 C -0.2615(11) -0.0321(7) 0.6046(11)
H103 H -0.3080 -0.0381 0.5984
C93 C -0.2136(10) -0.0585(5) 0.5777(7)
C94 C -0.2369(12) -0.0948(6) 0.5727(8)
H104 H -0.2774 -0.1023 0.5838
C95 C -0.1953(11) -0.1197(5) 0.5497(8)
H105 H -0.2052 -0.1452 0.5478
C96 C -0.1428(11) -0.1066(5) 0.5311(8)
H106 H -0.1154 -0.1233 0.5159
C97 C -0.1265(11) -0.0716(6) 0.5326(7)
H107 H -0.0896 -0.0634 0.5172
C98 C -0.1622(9) -0.0480(5) 0.5556(8)
H108 H -0.1504 -0.0228 0.5563
C99 C 0.0993(11) 0.4389(5) 0.0987(7)
C100 C 0.0804(10) 0.4746(5) 0.0950(7)
H109 H 0.1116 0.4939 0.1047
C101 C 0.0099(12) 0.4812(7) 0.0756(8)
H110 H -0.0062 0.5057 0.0762
C102 C -0.0334(11) 0.4552(8) 0.0570(8)
H111 H -0.0780 0.4611 0.0401
C103 C -0.0112(13) 0.4175(7) 0.0630(9)
H112 H -0.0415 0.3978 0.0532
C104 C 0.0535(10) 0.4115(5) 0.0829(8)
H113 H 0.0688 0.3869 0.0863
C105 C 0.1679(9) 0.4284(6) 0.1127(8)
H114 H 0.1866 0.4148 0.0870
C106 C 0.2056(12) 0.4353(5) 0.1557(8)
H115 H 0.2494 0.4252 0.1572
C107 C 0.1983(10) 0.4565(5) 0.2074(7)
C108 C 0.2554(13) 0.4681(6) 0.2414(8)
H116 H 0.2988 0.4639 0.2329
C109 C 0.2481(16) 0.4863(6) 0.2892(9)
H117 H 0.2861 0.4947 0.3136
C110 C 0.1802(15) 0.4916(6) 0.2997(9)
H118 H 0.1718 0.5038 0.3308
C111 C 0.1334(11) 0.4792(4) 0.2656(8)
H119 H 0.0885 0.4821 0.2716
C112 C 0.1431(9) 0.4623(5) 0.2214(7)
H120 H 0.1042 0.4537 0.1982
C113 C 0.2407(10) 0.9430(6) 0.5945(10)
C114 C 0.2466(10) 0.9763(7) 0.5673(15)
H121 H 0.2542 1.0004 0.5814
C115 C 0.238(2) 0.9645(14) 0.5135(19)
H122 H 0.2233 0.9831 0.4880
C116 C 0.2459(11) 0.9359(13) 0.4951(10)
H123 H 0.2555 0.9337 0.4600
C117 C 0.2408(14) 0.9057(8) 0.5257(12)
H124 H 0.2360 0.8819 0.5102
C118 C 0.2427(13) 0.9107(5) 0.5811(9)
H125 H 0.2453 0.8909 0.6057
C119 C 0.2465(12) 0.9498(6) 0.6565(13)
H126 H 0.2882 0.9594 0.6743
C120 C 0.1963(11) 0.9432(5) 0.6895(12)
H127 H 0.2090 0.9480 0.7266
C121 C 0.1234(9) 0.9290(5) 0.6700(10)
C122 C 0.0964(10) 0.9211(5) 0.6210(9)
H128 H 0.1216 0.9221 0.5928
C123 C 0.0282(9) 0.9110(5) 0.6120(10)
H129 H 0.0069 0.9065 0.5763
C124 C -0.0085(11) 0.9075(6) 0.6508(12)
H130 H -0.0534 0.8987 0.6432
C125 C 0.0216(11) 0.9172(5) 0.7034(8)
H131 H -0.0040 0.9164 0.7314
C126 C 0.0886(11) 0.9280(5) 0.7140(10)
H132 H 0.1102 0.9343 0.7491
N38 N 0.1143(12) -0.0268(11) 0.0566(8)
O4 O 0.1490(11) -0.0589(6) 0.0658(6)
O5 O 0.1621(10) -0.0054(8) 0.0736(8)
O6 O 0.0632(6) -0.0237(3) 0.0343(5)
loop_
_geom_bond_atom_site_label_1
_geom_bond_atom_site_label_2
_geom_bond_site_symmetry_1
_geom_bond_site_symmetry_2
Pd1 N4 1_555 1_555
Pd2 N11 1_555 1_555
Pd3 N10 1_555 1_555
Pd4 N17 1_555 1_555
Pd5 N5 1_555 1_555
Pd6 N6 1_555 1_555
N1 C1 1_555 1_555
N2 C2 1_555 1_555
N3 C1 1_555 1_555
C1 C9 1_555 1_555
C2 N1 1_555 1_555
C3 N2 1_555 1_555
N4 C5 1_555 1_555
C4 C3 1_555 1_555
C5 C4 1_555 1_555
H1 C5 1_555 1_555
C6 N4 1_555 1_555
H2 C6 1_555 1_555
C7 C6 1_555 1_555
H3 C7 1_555 1_555
C8 C4 1_555 1_555
H4 C8 1_555 1_555
N5 C10 1_555 1_555
C9 C10 1_555 1_555
C10 H5 1_555 1_555
C11 N5 1_555 1_555
H6 C11 1_555 1_555
C12 C11 1_555 1_555
H7 C12 1_555 1_555
C13 C9 1_555 1_555
H8 C13 1_555 1_555
N6 C15 1_555 1_555
C14 C2 1_555 1_555
C15 C14 1_555 1_555
H9 C15 1_555 1_555
C16 N6 1_555 1_555
H10 C16 1_555 1_555
C17 C16 1_555 1_555
H11 C17 1_555 1_555
C18 C14 1_555 1_555
H12 C18 1_555 1_555
N7 C19 1_555 1_555
N8 C20 1_555 1_555
N9 C19 1_555 1_555
C19 C22 1_555 1_555
C20 N7 1_555 1_555
C21 N8 1_555 1_555
N10 C23 1_555 1_555
C22 C23 1_555 1_555
C23 H13 1_555 1_555
C24 N10 1_555 1_555
H14 C24 1_555 1_555
C25 C24 1_555 1_555
H15 C25 1_555 1_555
C26 C22 1_555 1_555
H16 C26 1_555 1_555
N11 C28 1_555 1_555
C27 C20 1_555 1_555
C28 C27 1_555 1_555
H17 C28 1_555 1_555
C29 N11 1_555 1_555
H18 C29 1_555 1_555
C30 C29 1_555 1_555
H19 C30 1_555 1_555
C31 C27 1_555 1_555
H20 C31 1_555 1_555
N12 Pd1 1_555 1_555
C32 C21 1_555 1_555
C33 N12 1_555 1_555
H21 C33 1_555 1_555
C34 N12 1_555 1_555
H22 C34 1_555 1_555
C35 C34 1_555 1_555
H23 C35 1_555 1_555
C36 C32 1_555 1_555
H24 C36 1_555 1_555
N13 C37 1_555 1_555
N14 C38 1_555 1_555
N15 C37 1_555 1_555
C37 C40 1_555 1_555
C38 N15 1_555 1_555
C39 N13 1_555 1_555
N16 Pd3 1_555 1_555
C40 C41 1_555 1_555
C41 N16 1_555 1_555
H25 C41 1_555 1_555
C42 N16 1_555 1_555
H26 C42 1_555 1_555
C43 C42 1_555 1_555
H27 C43 1_555 1_555
C44 C40 1_555 1_555
H28 C44 1_555 1_555
N17 C46 1_555 1_555
C45 C38 1_555 1_555
C46 C45 1_555 1_555
H29 C46 1_555 1_555
C47 N17 1_555 1_555
H30 C47 1_555 1_555
C48 C47 1_555 1_555
H31 C48 1_555 1_555
C49 C45 1_555 1_555
H32 C49 1_555 1_555
N18 Pd2 1_555 1_555
C50 C39 1_555 1_555
C51 N18 1_555 1_555
H33 C51 1_555 1_555
C52 N18 1_555 1_555
H34 C52 1_555 1_555
C53 C52 1_555 1_555
H35 C53 1_555 1_555
C54 C50 1_555 1_555
H36 C54 1_555 1_555
N19 C55 1_555 1_555
N20 C56 1_555 1_555
N21 C55 1_555 1_555
C55 C58 1_555 1_555
C56 N19 1_555 1_555
C57 N20 1_555 1_555
N22 Pd5 1_555 1_555
C58 C59 1_555 1_555
C59 N22 1_555 1_555
H37 C59 1_555 1_555
C60 N22 1_555 1_555
H38 C60 1_555 1_555
C61 C60 1_555 1_555
H39 C61 1_555 1_555
C62 C58 1_555 1_555
H40 C62 1_555 1_555
N23 Pd4 1_555 1_555
C63 C56 1_555 1_555
C64 N23 1_555 1_555
H41 C64 1_555 1_555
C65 N23 1_555 1_555
H42 C65 1_555 1_555
C66 C65 1_555 1_555
H43 C66 1_555 1_555
C67 C63 1_555 1_555
H44 C67 1_555 1_555
N24 Pd6 1_555 1_555
C68 C57 1_555 1_555
C69 N24 1_555 1_555
H45 C69 1_555 1_555
C70 N24 1_555 1_555
H46 C70 1_555 1_555
C71 C70 1_555 1_555
H47 C71 1_555 1_555
C72 C68 1_555 1_555
H48 C72 1_555 1_555
N25 Pd1 1_555 1_555
H49 N25 1_555 1_555
H50 N25 1_555 1_555
N26 Pd1 1_555 1_555
H51 N26 1_555 1_555
H52 N26 1_555 1_555
C73 N25 1_555 1_555
H53 C73 1_555 1_555
H54 C73 1_555 1_555
C74 N26 1_555 1_555
H55 C74 1_555 1_555
H56 C74 1_555 1_555
N27 Pd2 1_555 1_555
H57 N27 1_555 1_555
H58 N27 1_555 1_555
N28 Pd2 1_555 1_555
H59 N28 1_555 1_555
H60 N28 1_555 1_555
C75 N27 1_555 1_555
H61 C75 1_555 1_555
H62 C75 1_555 1_555
C76 N28 1_555 1_555
H63 C76 1_555 1_555
H64 C76 1_555 1_555
N29 Pd3 1_555 1_555
H65 N29 1_555 1_555
H66 N29 1_555 1_555
N30 Pd3 1_555 1_555
H67 N30 1_555 1_555
H68 N30 1_555 1_555
C77 N29 1_555 1_555
H69 C77 1_555 1_555
H70 C77 1_555 1_555
C78 N30 1_555 1_555
H71 C78 1_555 1_555
H72 C78 1_555 1_555
N31 Pd4 1_555 1_555
H73 N31 1_555 1_555
H74 N31 1_555 1_555
N32 Pd4 1_555 1_555
H75 N32 1_555 1_555
H76 N32 1_555 1_555
C79 N31 1_555 1_555
H77 C79 1_555 1_555
H78 C79 1_555 1_555
C80 N32 1_555 1_555
H79 C80 1_555 1_555
H80 C80 1_555 1_555
N33 Pd5 1_555 1_555
H81 N33 1_555 1_555
H82 N33 1_555 1_555
N34 Pd5 1_555 1_555
H83 N34 1_555 1_555
H84 N34 1_555 1_555
C81 N33 1_555 1_555
H85 C81 1_555 1_555
H86 C81 1_555 1_555
C82 N34 1_555 1_555
H87 C82 1_555 1_555
H88 C82 1_555 1_555
N35 Pd6 1_555 1_555
H89 N35 1_555 1_555
H90 N35 1_555 1_555
N36 Pd6 1_555 1_555
H91 N36 1_555 1_555
H92 N36 1_555 1_555
C83 N35 1_555 1_555
H93 C83 1_555 1_555
H94 C83 1_555 1_555
C84 N36 1_555 1_555
H95 C84 1_555 1_555
H96 C84 1_555 1_555
N37 O1 1_555 1_555
O2 N37 1_555 1_555
O3 N37 1_555 1_555
C85 C86 1_555 1_555
C86 H97 1_555 1_555
C87 C86 1_555 1_555
H98 C87 1_555 1_555
C88 C87 1_555 1_555
H99 C88 1_555 1_555
C89 C88 1_555 1_555
H100 C89 1_555 1_555
C90 C85 1_555 1_555
H101 C90 1_555 1_555
C91 C85 1_555 1_555
H102 C91 1_555 1_555
C92 C91 1_555 1_555
H103 C92 1_555 1_555
C93 C92 1_555 1_555
C94 C93 1_555 1_555
H104 C94 1_555 1_555
C95 C94 1_555 1_555
H105 C95 1_555 1_555
C96 C95 1_555 1_555
H106 C96 1_555 1_555
C97 C96 1_555 1_555
H107 C97 1_555 1_555
C98 C93 1_555 1_555
H108 C98 1_555 1_555
C99 C100 1_555 1_555
C100 H109 1_555 1_555
C101 C100 1_555 1_555
H110 C101 1_555 1_555
C102 C101 1_555 1_555
H111 C102 1_555 1_555
C103 C102 1_555 1_555
H112 C103 1_555 1_555
C104 C99 1_555 1_555
H113 C104 1_555 1_555
C105 C99 1_555 1_555
H114 C105 1_555 1_555
C106 C105 1_555 1_555
H115 C106 1_555 1_555
C107 C106 1_555 1_555
C108 C107 1_555 1_555
H116 C108 1_555 1_555
C109 C108 1_555 1_555
H117 C109 1_555 1_555
C110 C109 1_555 1_555
H118 C110 1_555 1_555
C111 C110 1_555 1_555
H119 C111 1_555 1_555
C112 C107 1_555 1_555
H120 C112 1_555 1_555
C113 C114 1_555 1_555
C114 H121 1_555 1_555
C115 C114 1_555 1_555
H122 C115 1_555 1_555
C116 C115 1_555 1_555
H123 C116 1_555 1_555
C117 C116 1_555 1_555
H124 C117 1_555 1_555
C118 C113 1_555 1_555
H125 C118 1_555 1_555
C119 C113 1_555 1_555
H126 C119 1_555 1_555
C120 C119 1_555 1_555
H127 C120 1_555 1_555
C121 C120 1_555 1_555
C122 C121 1_555 1_555
H128 C122 1_555 1_555
C123 C122 1_555 1_555
H129 C123 1_555 1_555
C124 C123 1_555 1_555
H130 C124 1_555 1_555
C125 C124 1_555 1_555
H131 C125 1_555 1_555
C126 C121 1_555 1_555
H132 C126 1_555 1_555
N38 O4 1_555 1_555
O5 N38 1_555 1_555
O6 N38 1_555 1_555
N3 C3 1_555 1_555
C7 C8 1_555 1_555
C12 C13 1_555 1_555
C17 C18 1_555 1_555
N9 C21 1_555 1_555
C25 C26 1_555 1_555
C30 C31 1_555 1_555
C32 C33 1_555 1_555
C35 C36 1_555 1_555
N14 C39 1_555 1_555
C43 C44 1_555 1_555
C48 C49 1_555 1_555
C50 C51 1_555 1_555
C53 C54 1_555 1_555
N21 C57 1_555 1_555
C61 C62 1_555 1_555
C63 C64 1_555 1_555
C66 C67 1_555 1_555
C68 C69 1_555 1_555
C71 C72 1_555 1_555
C73 C74 1_555 1_555
C75 C76 1_555 1_555
C77 C78 1_555 1_555
C79 C80 1_555 1_555
C81 C82 1_555 1_555
C83 C84 1_555 1_555
C89 C90 1_555 1_555
C97 C98 1_555 1_555
C103 C104 1_555 1_555
C111 C112 1_555 1_555
C117 C118 1_555 1_555
C125 C126 1_555 1_555

#END
