
#######################################################################
#
#                 Cambridge Crystallographic Data Centre
#                                CCDC 
#
#######################################################################
#
# If this CIF has been generated from an entry in the Cambridge 
# Structural Database, then it will include bibliographic, chemical, 
# crystal, experimental, refinement or atomic coordinate data resulting 
# from the CCDC's data processing and validation procedures.
#
#######################################################################

data_KICRUL
_chemical_formula_moiety         
'C108 H120 Cd4 N28 8+,8(C1 F3 O3 S1 1-),6(C2 H3 N1)'
_chemical_name_systematic        
'(\m~4~-1,5,10,14,18,23,27,31,36,40,44,49,56,61,68,73-Hexadeca-aza-7,20,33,46,58,70(2,5),8,21,34,47,59,71(5,2)-dodecapyridinatricyclo[25.12.12^4,40^.12^27,40^]hexaheptacontaphane-5,9,18,22,31,35,44,48,56,60,68,71-dodeca-ene)-tetra-cadmium octakis(trifluoromethanesulfonate) acetonitrile solvate'
_symmetry_cell_setting           tetragonal
_symmetry_space_group_name_H-M   'I -4'
_symmetry_Int_Tables_number      82
_space_group_name_Hall           'I -4'
loop_
_symmetry_equiv_pos_site_id
_symmetry_equiv_pos_as_xyz
1 x,y,z
2 -x,-y,z
3 y,-x,-z
4 -y,x,-z
5 1/2+x,1/2+y,1/2+z
6 1/2-x,1/2-y,1/2+z
7 1/2+y,1/2-x,1/2-z
8 1/2-y,1/2+x,1/2-z
_cell_length_a                   34.279(5)
_cell_length_b                   34.279(5)
_cell_length_c                   29.966(6)
_cell_angle_alpha                90
_cell_angle_beta                 90
_cell_angle_gamma                90
_cell_volume                     35211.5
_exptl_crystal_colour            colorless
_exptl_crystal_description       block
_cell_formula_units_Z            8
loop_
_atom_site_label
_atom_site_type_symbol
_atom_site_fract_x
_atom_site_fract_y
_atom_site_fract_z
C1 C 0.6969(3) 0.4064(2) 0.2465(2)
H1 H 0.6834 0.4308 0.2380
H2 H 0.7251 0.4125 0.2483
C2 C 0.6831(3) 0.3952(3) 0.2931(3)
H3 H 0.6830 0.4191 0.3117
H4 H 0.6559 0.3859 0.2909
C3 C 0.7066(3) 0.3647(3) 0.3166(3)
H5 H 0.7342 0.3732 0.3182
H6 H 0.6968 0.3617 0.3475
C4 C 0.6907(2) 0.2979(3) 0.3149(2)
H7 H 0.6808 0.3012 0.3442
C5 C 0.6906(2) 0.2586(2) 0.2934(2)
C6 C 0.6734(2) 0.2264(3) 0.3153(3)
H8 H 0.6622 0.2292 0.3441
C7 C 0.6732(2) 0.1919(3) 0.2945(3)
H9 H 0.6619 0.1699 0.3089
C8 C 0.6893(2) 0.1876(3) 0.2522(3)
C9 C 0.7066(2) 0.2203(2) 0.2332(3)
H10 H 0.7184 0.2180 0.2046
C10 C 0.6898(2) 0.1496(2) 0.2278(2)
C11 C 0.6758(3) 0.1463(3) 0.1841(3)
H11 H 0.6667 0.1686 0.1685
C12 C 0.6754(3) 0.1112(3) 0.1649(3)
H12 H 0.6664 0.1086 0.1351
C13 C 0.6880(3) 0.0787(2) 0.1877(3)
C14 C 0.7018(2) 0.1152(3) 0.2483(2)
H13 H 0.7103 0.1169 0.2784
C15 C 0.6876(2) 0.0384(3) 0.1668(3)
H14 H 0.6803 0.0356 0.1364
C16 C 0.6984(3) -0.0292(3) 0.1692(3)
H15 H 0.7254 -0.0392 0.1718
H16 H 0.6924 -0.0267 0.1370
C17 C 0.6718(3) -0.0579(3) 0.1886(3)
H17 H 0.6723 -0.0814 0.1695
H18 H 0.6451 -0.0470 0.1872
C18 C 0.6798(4) -0.0706(3) 0.2368(4)
H19 H 0.6629 -0.0932 0.2436
H20 H 0.7072 -0.0796 0.2387
C19 C 0.6793(3) -0.0612(3) 0.3163(4)
H21 H 0.6733 -0.0424 0.3404
H22 H 0.6598 -0.0825 0.3182
C20 C 0.7182(3) -0.0782(3) 0.3254(3)
H23 H 0.7271 -0.0923 0.2985
H24 H 0.7156 -0.0975 0.3498
C21 C 0.7498(3) -0.0483(2) 0.3387(3)
H25 H 0.7397 -0.0311 0.3626
H26 H 0.7730 -0.0621 0.3503
C22 C 0.7974(2) -0.0233(2) 0.2878(2)
H27 H 0.8162 -0.0384 0.3035
C23 C 0.8096(2) 0.0009(2) 0.2507(2)
C24 C 0.8480(2) 0.0030(2) 0.2394(2)
H28 H 0.8669 -0.0115 0.2555
C25 C 0.8595(2) 0.0270(2) 0.2036(2)
H29 H 0.8863 0.0299 0.1963
C26 C 0.83149(19) 0.0459(2) 0.1796(2)
C27 C 0.7930(2) 0.0429(2) 0.1947(2)
H30 H 0.7734 0.0574 0.1796
C28 C 0.8407(2) 0.0697(2) 0.1398(2)
C29 C 0.8173(2) 0.0685(2) 0.1023(2)
H31 H 0.7945 0.0527 0.1015
C30 C 0.82832(19) 0.0917(2) 0.0649(2)
H32 H 0.8135 0.0907 0.0382
C31 C 0.8611(2) 0.1158(2) 0.0678(2)
C32 C 0.87270(19) 0.0944(2) 0.1401(2)
H33 H 0.8880 0.0959 0.1665
C33 C 0.8726(2) 0.1415(2) 0.0312(2)
H34 H 0.8553 0.1452 0.0068
C34 C 0.9134(2) 0.1883(3) -0.0041(3)
H35 H 0.8906 0.1903 -0.0242
H36 H 0.9172 0.2141 0.0101
C35 C 0.9484(2) 0.1785(3) -0.0308(3)
H37 H 0.9511 0.1986 -0.0543
H38 H 0.9433 0.1534 -0.0460
C36 C 0.9883(2) 0.1750(2) -0.0068(2)
H39 H 1.0090 0.1727 -0.0298
H40 H 0.9932 0.1994 0.0099
C37 C 1.0339(2) 0.1390(2) 0.0398(2)
H41 H 1.0496 0.1289 0.0147
H42 H 1.0357 0.1198 0.0644
C38 C 1.0529(2) 0.1776(2) 0.0560(3)
H43 H 1.0815 0.1740 0.0571
H44 H 1.0474 0.1983 0.0337
C39 C 1.0391(2) 0.1916(2) 0.1012(2)
H45 H 1.0452 0.1715 0.1239
H46 H 1.0532 0.2157 0.1093
C40 C 0.9855(2) 0.2334(3) 0.1076(3)
H47 H 1.0041 0.2539 0.1095
C41 C 0.9441(2) 0.2422(2) 0.1119(3)
C42 C 0.9291(3) 0.2809(3) 0.1150(4)
H48 H 0.9465 0.3024 0.1138
C43 C 0.8899(3) 0.2872(3) 0.1197(3)
H49 H 0.8800 0.3129 0.1234
C44 C 0.8645(2) 0.2550(2) 0.1189(2)
C45 C 0.8809(2) 0.2178(2) 0.1143(2)
H50 H 0.8638 0.1960 0.1132
C46 C 0.8216(2) 0.2597(2) 0.1213(2)
C47 C 0.7980(3) 0.2469(3) 0.0864(3)
H51 H 0.8090 0.2344 0.0611
C48 C 0.7584(2) 0.2530(3) 0.0896(3)
H52 H 0.7415 0.2448 0.0663
C49 C 0.7430(2) 0.2716(2) 0.1282(2)
C50 C 0.8044(2) 0.2756(2) 0.1577(2)
H53 H 0.8206 0.2832 0.1819
C51 C 0.7016(2) 0.2786(2) 0.1324(2)
H54 H 0.6845 0.2699 0.1096
C52 C 0.6465(2) 0.3015(3) 0.1689(3)
H55 H 0.6368 0.2895 0.1968
H56 H 0.6342 0.2874 0.1437
C53 C 0.6332(2) 0.3448(3) 0.1675(3)
H57 H 0.6043 0.3459 0.1673
H58 H 0.6426 0.3570 0.1395
C54 C 0.6488(2) 0.3685(3) 0.2081(3)
H59 H 0.6342 0.3934 0.2093
H60 H 0.6422 0.3538 0.2355
C55 C 0.7024(3) 0.3977(3) 0.1670(3)
H61 H 0.6836 0.4190 0.1615
H62 H 0.6993 0.3785 0.1426
C56 C 0.7435(3) 0.4146(3) 0.1642(3)
H63 H 0.7450 0.4319 0.1378
H64 H 0.7482 0.4309 0.1909
C57 C 0.7752(2) 0.3851(3) 0.1610(3)
H65 H 0.7698 0.3676 0.1355
H66 H 0.8002 0.3986 0.1551
C58 C 0.8113(2) 0.3630(2) 0.2221(3)
H67 H 0.8314 0.3800 0.2122
C59 C 0.8176(2) 0.3379(2) 0.2616(3)
C60 C 0.8513(2) 0.3421(3) 0.2893(3)
H68 H 0.8694 0.3626 0.2838
C61 C 0.8574(3) 0.3177(3) 0.3224(3)
H69 H 0.8807 0.3197 0.3393
C62 C 0.8300(2) 0.2887(2) 0.3332(3)
C63 C 0.7976(2) 0.2871(2) 0.3054(2)
H70 H 0.7787 0.2676 0.3118
C64 C 0.8341(2) 0.2628(2) 0.3727(2)
C65 C 0.8047(2) 0.2584(3) 0.4027(3)
H71 H 0.7801 0.2705 0.3978
C66 C 0.8114(2) 0.2358(3) 0.4411(3)
H72 H 0.7913 0.2324 0.4626
C67 C 0.8475(2) 0.2184(2) 0.4473(2)
C68 C 0.8698(2) 0.2440(2) 0.3806(3)
H73 H 0.8900 0.2468 0.3591
C69 C 0.8557(2) 0.1946(2) 0.4865(2)
H74 H 0.8363 0.1920 0.5089
C70 C 0.8925(2) 0.1510(3) 0.5297(3)
H75 H 0.8986 0.1245 0.5186
H76 H 0.8676 0.1496 0.5464
C71 C 0.9244(3) 0.1641(3) 0.5610(2)
H77 H 0.9232 0.1481 0.5885
H78 H 0.9196 0.1915 0.5696
C72 C 0.9658(3) 0.1608(3) 0.5410(3)
H79 H 0.9847 0.1614 0.5660
H80 H 0.9681 0.1349 0.5266
C73 C 1.0198(2) 0.1833(4) 0.4986(3)
H81 H 1.0352 0.1888 0.5259
H82 H 1.0276 0.2028 0.4759
C74 C 1.0316(3) 0.1424(3) 0.4813(3)
H83 H 1.0602 0.1389 0.4846
H84 H 1.0185 0.1221 0.4993
C75 C 1.0204(2) 0.1376(3) 0.4324(3)
H85 H 1.0292 0.1608 0.4155
H86 H 1.0338 0.1145 0.4201
C76 C 0.9666(3) 0.1022(3) 0.4113(3)
H87 H 0.9852 0.0825 0.4045
C77 C 0.9247(3) 0.0943(2) 0.4025(3)
C78 C 0.9118(3) 0.0593(2) 0.3834(3)
H88 H 0.9299 0.0391 0.3770
C79 C 0.8735(3) 0.0543(3) 0.3741(3)
H89 H 0.8648 0.0305 0.3611
C80 C 0.8468(2) 0.0838(2) 0.3836(2)
C81 C 0.8617(2) 0.1187(2) 0.4013(2)
H90 H 0.8439 0.1392 0.4075
C82 C 0.8044(3) 0.0790(2) 0.3765(3)
C83 C 0.7787(3) 0.0856(2) 0.4092(3)
H91 H 0.7874 0.0948 0.4374
C84 C 0.7385(3) 0.0788(3) 0.4020(3)
H92 H 0.7201 0.0831 0.4252
C85 C 0.7265(3) 0.0657(2) 0.3604(3)
C86 C 0.7889(3) 0.0649(2) 0.3348(3)
H93 H 0.8069 0.0599 0.3114
C87 C 0.6861(3) 0.0592(3) 0.3511(3)
H94 H 0.6676 0.0681 0.3724
C88 C 0.6316(3) 0.0392(3) 0.3066(4)
H95 H 0.6261 0.0517 0.2775
H96 H 0.6174 0.0542 0.3297
C89 C 0.6152(3) -0.0025(5) 0.3056(4)
H97 H 0.6198 -0.0148 0.3350
H98 H 0.5866 -0.0012 0.3009
C90 C 0.6327(3) -0.0279(3) 0.2701(4)
H99 H 0.6166 -0.0518 0.2686
H100 H 0.6291 -0.0141 0.2413
C91 C 0.9823(2) 0.1056(2) -0.0004(2)
H101 H 0.9970 0.1060 -0.0288
H102 H 0.9542 0.1063 -0.0080
C92 C 0.9908(2) 0.0675(2) 0.0234(2)
H103 H 1.0178 0.0687 0.0351
H104 H 0.9900 0.0462 0.0010
C93 C 0.9635(2) 0.0565(2) 0.0620(3)
H105 H 0.9364 0.0551 0.0507
H106 H 0.9706 0.0303 0.0732
C94 C 0.9723(2) 0.0722(2) 0.1383(2)
H107 H 0.9785 0.0455 0.1429
C95 C 0.9714(2) 0.0984(2) 0.1758(2)
C96 C 0.9786(3) 0.0854(3) 0.2199(3)
H108 H 0.9832 0.0586 0.2257
C97 C 0.9787(3) 0.1116(3) 0.2540(3)
H109 H 0.9841 0.1031 0.2836
C98 C 0.9711(2) 0.1508(2) 0.2459(2)
C99 C 0.9624(2) 0.1611(3) 0.2013(3)
H110 H 0.9558 0.1874 0.1951
C100 C 0.9710(2) 0.1810(2) 0.2819(2)
C101 C 0.9849(2) 0.2174(2) 0.2753(2)
H111 H 0.9942 0.2249 0.2467
C102 C 0.9856(2) 0.2440(3) 0.3107(3)
H112 H 0.9951 0.2699 0.3067
C103 C 0.9719(2) 0.2313(3) 0.3521(3)
C104 C 0.9557(2) 0.1708(2) 0.3242(2)
H113 H 0.9447 0.1457 0.3286
C105 C 0.9735(2) 0.2586(2) 0.3900(3)
H114 H 0.9828 0.2844 0.3858
C106 C 0.9625(3) 0.2753(2) 0.4649(3)
H115 H 0.9355 0.2783 0.4761
H116 H 0.9711 0.3010 0.4534
C107 C 0.9879(3) 0.2643(3) 0.5027(3)
H117 H 0.9900 0.2868 0.5231
H118 H 1.0144 0.2589 0.4909
C108 C 0.9747(3) 0.2293(3) 0.5291(3)
H119 H 0.9899 0.2291 0.5572
H120 H 0.9471 0.2338 0.5374
N1 N 0.69133(18) 0.37801(18) 0.21011(19)
N2 N 0.68775(18) 0.29620(17) 0.16640(19)
N3 N 0.76588(18) 0.28138(18) 0.16151(19)
N4 N 0.77921(19) 0.36163(18) 0.20152(19)
N5 N 0.79068(18) 0.31006(19) 0.2709(2)
N6 N 0.70435(17) 0.32694(18) 0.29333(19)
N7 N 0.70724(18) 0.25495(19) 0.25377(19)
N8 N 0.6735(2) -0.0404(2) 0.2718(2)
N9 N 0.6731(2) 0.0420(2) 0.3155(3)
N10 N 0.7517(2) 0.05842(18) 0.3266(2)
N11 N 0.6969(2) 0.0088(2) 0.1890(2)
N12 N 0.70217(18) 0.08031(18) 0.2295(2)
N13 N 0.7609(2) -0.02457(18) 0.2998(2)
N14 N 0.78242(17) 0.02080(18) 0.22891(19)
N15 N 0.97739(18) 0.1896(2) 0.5093(2)
N16 N 0.9781(2) 0.13295(19) 0.4268(2)
N17 N 0.8991(2) 0.12481(19) 0.4099(2)
N18 N 0.96229(18) 0.24747(19) 0.42820(19)
N19 N 0.95665(18) 0.19645(18) 0.35818(19)
N20 N 0.88767(18) 0.17761(19) 0.49134(19)
N21 N 0.87672(18) 0.22248(18) 0.4166(2)
N22 N 0.99198(16) 0.14108(18) 0.02496(18)
N23 N 0.99673(17) 0.19934(18) 0.10167(18)
N24 N 0.91906(18) 0.21141(17) 0.11114(19)
N25 N 0.90485(16) 0.15883(18) 0.03128(19)
N26 N 0.88334(17) 0.11648(18) 0.10518(19)
N27 N 0.96499(17) 0.08435(18) 0.09910(19)
N28 N 0.96306(17) 0.13648(18) 0.16838(17)
Cd1 Cd 0.730601(15) 0.318024(15) 0.221950(16)
Cd2 Cd 0.717618(16) 0.017204(16) 0.263899(17)
Cd3 Cd 0.936025(15) 0.184654(16) 0.438478(16)
Cd4 Cd 0.949626(14) 0.150112(14) 0.090036(15)
C109 C 0.9641(3) 0.0505(2) 0.6935(4)
O1 O 0.9073(2) 0.0731(3) 0.6437(3)
O2 O 0.9693(2) 0.0608(2) 0.6102(2)
O3 O 0.96100(18) 0.11739(17) 0.6557(2)
F1 F 0.9448(3) 0.0641(2) 0.7305(2)
F2 F 0.9587(2) 0.01347(18) 0.6883(3)
F3 F 1.0024(2) 0.05746(19) 0.7020(2)
S1 S 0.94836(6) 0.07879(7) 0.64517(8)
C110 C 0.1634(3) 0.2380(3) 0.0489(3)
O4 O 0.2257(2) 0.2119(2) 0.0821(2)
O5 O 0.2065(3) 0.1882(2) 0.0086(2)
O6 O 0.1717(2) 0.16809(17) 0.07559(19)
F4 F 0.1525(2) 0.25177(18) 0.0887(2)
F5 F 0.1793(2) 0.26843(18) 0.0283(2)
F6 F 0.1310(2) 0.2282(3) 0.0255(3)
S2 S 0.19608(7) 0.19671(6) 0.05477(6)
C111 C 0.9098(3) 0.9179(3) 0.1544(3)
O7 O 0.9456(2) 0.9560(2) 0.0918(2)
O8 O 0.88360(18) 0.98121(18) 0.11978(19)
O9 O 0.9416(2) 0.98479(18) 0.1655(2)
F7 F 0.88708(15) 0.92187(15) 0.18967(17)
F8 F 0.94204(16) 0.89929(16) 0.1666(2)
F9 F 0.89214(17) 0.89549(17) 0.1239(2)
S3 S 0.92101(6) 0.96592(6) 0.12973(7)
C112 C 0.7770(4) 0.3471(4) 0.0246(4)
O10 O 0.7110(3) 0.3668(3) -0.0049(2)
O11 O 0.7393(3) 0.4072(2) 0.0498(3)
O12 O 0.7148(2) 0.3437(2) 0.06944(19)
F10 F 0.7966(2) 0.3668(3) -0.0071(2)
F11 F 0.7728(3) 0.3108(2) 0.0072(2)
F12 F 0.7996(2) 0.3447(2) 0.0603(2)
S4 S 0.73005(9) 0.36821(9) 0.03626(8)
C113 C 0.6282(9) 0.1719(8) 0.0188(10)
F13 F 0.6303(4) 0.1869(4) -0.0225(4)
F14 F 0.5929(4) 0.1561(4) 0.0292(5)
F15 F 0.6552(5) 0.1419(5) 0.0247(6)
O13 O 0.6089(3) 0.2334(3) 0.0618(3)
O14 O 0.6549(3) 0.1955(3) 0.0998(3)
O15 O 0.6735(4) 0.2228(4) 0.0357(5)
S5 S 0.64000(7) 0.20746(7) 0.05888(9)
N29 N 0.7882(2) 0.9023(2) 0.2233(3)
C114 C 0.7954(3) 0.9116(3) 0.1874(3)
C115 C 0.8016(3) 0.9251(4) 0.1425(3)
H121 H 0.8106 0.9033 0.1239
H122 H 0.8213 0.9458 0.1425
H123 H 0.7770 0.9353 0.1304
N30 N 0.6064(4) 0.2250(4) 0.4055(6)
C116 C 0.6146(5) 0.2173(5) 0.4419(6)
C117 C 0.6218(6) 0.2050(6) 0.4866(7)
H124 H 0.6081 0.2224 0.5074
H125 H 0.6499 0.2060 0.4927
H126 H 0.6124 0.1783 0.4906
N31 N 0.8783(5) 0.1107(5) 0.2746(6)
C118 C 0.8591(5) 0.1364(5) 0.2625(6)
C119 C 0.8377(7) 0.1687(6) 0.2452(7)
H127 H 0.8496 0.1931 0.2555
H128 H 0.8106 0.1673 0.2557
H129 H 0.8381 0.1678 0.2125
N32 N 0.7708(4) 0.1726(4) 0.3295(5)
C120 C 0.7525(4) 0.1784(4) 0.3620(4)
C121 C 0.7305(4) 0.1811(3) 0.4008(3)
H130 H 0.7199 0.2076 0.4036
H131 H 0.7471 0.1754 0.4267
H132 H 0.7090 0.1623 0.3996
N33 N 0.7759(5) 0.1549(5) 0.1566(5)
C122 C 0.7619(4) 0.1520(4) 0.1216(4)
C123 C 0.7434(4) 0.1521(5) 0.0796(5)
H133 H 0.7307 0.1269 0.0747
H134 H 0.7629 0.1565 0.0562
H135 H 0.7239 0.1729 0.0787
N34 N 0.6393(5) 0.1314(5) 0.3863(6)
C124 C 0.6132(5) 0.1261(5) 0.4079(6)
C125 C 0.5751(8) 0.1082(8) 0.4250(9)
H136 H 0.5735 0.1115 0.4574
H137 H 0.5746 0.0803 0.4177
H138 H 0.5529 0.1212 0.4108
S6 S 0.79800(11) 0.45446(11) 0.30209(13)
O16 O 0.7708(3) 0.4830(3) 0.3077(4)
O17 O 0.8104(5) 0.4491(5) 0.2575(5)
O18 O 0.7892(7) 0.4189(5) 0.3231(8)
F16 F 0.8344(6) 0.4705(6) 0.3702(7)
F17 F 0.8655(6) 0.4319(6) 0.3365(6)
F18 F 0.8551(8) 0.4991(8) 0.3179(9)
C126 C 0.8431(6) 0.4630(8) 0.3270(9)
loop_
_geom_bond_atom_site_label_1
_geom_bond_atom_site_label_2
_geom_bond_site_symmetry_1
_geom_bond_site_symmetry_2
C1 H1 1_555 1_555
H2 C1 1_555 1_555
C2 C1 1_555 1_555
H3 C2 1_555 1_555
H4 C2 1_555 1_555
C3 C2 1_555 1_555
H5 C3 1_555 1_555
H6 C3 1_555 1_555
C4 H7 1_555 1_555
C5 C4 1_555 1_555
C6 C5 1_555 1_555
H8 C6 1_555 1_555
C7 C6 1_555 1_555
H9 C7 1_555 1_555
C8 C7 1_555 1_555
C9 C8 1_555 1_555
H10 C9 1_555 1_555
C10 C8 1_555 1_555
C11 C10 1_555 1_555
H11 C11 1_555 1_555
C12 C11 1_555 1_555
H12 C12 1_555 1_555
C13 C12 1_555 1_555
C14 C10 1_555 1_555
H13 C14 1_555 1_555
C15 C13 1_555 1_555
H14 C15 1_555 1_555
C16 H15 1_555 1_555
H16 C16 1_555 1_555
C17 C16 1_555 1_555
H17 C17 1_555 1_555
H18 C17 1_555 1_555
C18 C17 1_555 1_555
H19 C18 1_555 1_555
H20 C18 1_555 1_555
C19 H21 1_555 1_555
H22 C19 1_555 1_555
C20 C19 1_555 1_555
H23 C20 1_555 1_555
H24 C20 1_555 1_555
C21 C20 1_555 1_555
H25 C21 1_555 1_555
H26 C21 1_555 1_555
C22 H27 1_555 1_555
C23 C22 1_555 1_555
C24 C23 1_555 1_555
H28 C24 1_555 1_555
C25 C24 1_555 1_555
H29 C25 1_555 1_555
C26 C25 1_555 1_555
C27 C26 1_555 1_555
H30 C27 1_555 1_555
C28 C26 1_555 1_555
C29 C28 1_555 1_555
H31 C29 1_555 1_555
C30 C29 1_555 1_555
H32 C30 1_555 1_555
C31 C30 1_555 1_555
C32 C28 1_555 1_555
H33 C32 1_555 1_555
C33 C31 1_555 1_555
H34 C33 1_555 1_555
C34 H35 1_555 1_555
H36 C34 1_555 1_555
C35 C34 1_555 1_555
H37 C35 1_555 1_555
H38 C35 1_555 1_555
C36 C35 1_555 1_555
H39 C36 1_555 1_555
H40 C36 1_555 1_555
C37 H41 1_555 1_555
H42 C37 1_555 1_555
C38 C37 1_555 1_555
H43 C38 1_555 1_555
H44 C38 1_555 1_555
C39 C38 1_555 1_555
H45 C39 1_555 1_555
H46 C39 1_555 1_555
C40 H47 1_555 1_555
C41 C40 1_555 1_555
C42 C41 1_555 1_555
H48 C42 1_555 1_555
C43 C42 1_555 1_555
H49 C43 1_555 1_555
C44 C43 1_555 1_555
C45 C44 1_555 1_555
H50 C45 1_555 1_555
C46 C44 1_555 1_555
C47 C46 1_555 1_555
H51 C47 1_555 1_555
C48 C47 1_555 1_555
H52 C48 1_555 1_555
C49 C48 1_555 1_555
C50 C46 1_555 1_555
H53 C50 1_555 1_555
C51 C49 1_555 1_555
H54 C51 1_555 1_555
C52 H55 1_555 1_555
H56 C52 1_555 1_555
C53 C52 1_555 1_555
H57 C53 1_555 1_555
H58 C53 1_555 1_555
C54 C53 1_555 1_555
H59 C54 1_555 1_555
H60 C54 1_555 1_555
C55 H61 1_555 1_555
H62 C55 1_555 1_555
C56 C55 1_555 1_555
H63 C56 1_555 1_555
H64 C56 1_555 1_555
C57 C56 1_555 1_555
H65 C57 1_555 1_555
H66 C57 1_555 1_555
C58 H67 1_555 1_555
C59 C58 1_555 1_555
C60 C59 1_555 1_555
H68 C60 1_555 1_555
C61 C60 1_555 1_555
H69 C61 1_555 1_555
C62 C61 1_555 1_555
C63 C62 1_555 1_555
H70 C63 1_555 1_555
C64 C62 1_555 1_555
C65 C64 1_555 1_555
H71 C65 1_555 1_555
C66 C65 1_555 1_555
H72 C66 1_555 1_555
C67 C66 1_555 1_555
C68 C64 1_555 1_555
H73 C68 1_555 1_555
C69 C67 1_555 1_555
H74 C69 1_555 1_555
C70 H75 1_555 1_555
H76 C70 1_555 1_555
C71 C70 1_555 1_555
H77 C71 1_555 1_555
H78 C71 1_555 1_555
C72 C71 1_555 1_555
H79 C72 1_555 1_555
H80 C72 1_555 1_555
C73 H81 1_555 1_555
H82 C73 1_555 1_555
C74 C73 1_555 1_555
H83 C74 1_555 1_555
H84 C74 1_555 1_555
C75 C74 1_555 1_555
H85 C75 1_555 1_555
H86 C75 1_555 1_555
C76 H87 1_555 1_555
C77 C76 1_555 1_555
C78 C77 1_555 1_555
H88 C78 1_555 1_555
C79 C78 1_555 1_555
H89 C79 1_555 1_555
C80 C79 1_555 1_555
C81 C80 1_555 1_555
H90 C81 1_555 1_555
C82 C80 1_555 1_555
C83 C82 1_555 1_555
H91 C83 1_555 1_555
C84 C83 1_555 1_555
H92 C84 1_555 1_555
C85 C84 1_555 1_555
C86 C82 1_555 1_555
H93 C86 1_555 1_555
C87 C85 1_555 1_555
H94 C87 1_555 1_555
C88 H95 1_555 1_555
H96 C88 1_555 1_555
C89 C88 1_555 1_555
H97 C89 1_555 1_555
H98 C89 1_555 1_555
C90 C89 1_555 1_555
H99 C90 1_555 1_555
H100 C90 1_555 1_555
C91 H101 1_555 1_555
H102 C91 1_555 1_555
C92 C91 1_555 1_555
H103 C92 1_555 1_555
H104 C92 1_555 1_555
C93 C92 1_555 1_555
H105 C93 1_555 1_555
H106 C93 1_555 1_555
C94 H107 1_555 1_555
C95 C94 1_555 1_555
C96 C95 1_555 1_555
H108 C96 1_555 1_555
C97 C96 1_555 1_555
H109 C97 1_555 1_555
C98 C97 1_555 1_555
C99 C98 1_555 1_555
H110 C99 1_555 1_555
C100 C98 1_555 1_555
C101 C100 1_555 1_555
H111 C101 1_555 1_555
C102 C101 1_555 1_555
H112 C102 1_555 1_555
C103 C102 1_555 1_555
C104 C100 1_555 1_555
H113 C104 1_555 1_555
C105 C103 1_555 1_555
H114 C105 1_555 1_555
C106 H115 1_555 1_555
H116 C106 1_555 1_555
C107 C106 1_555 1_555
H117 C107 1_555 1_555
H118 C107 1_555 1_555
C108 C107 1_555 1_555
H119 C108 1_555 1_555
H120 C108 1_555 1_555
N1 C1 1_555 1_555
N2 C51 1_555 1_555
N3 C49 1_555 1_555
N4 C57 1_555 1_555
N5 C59 1_555 1_555
N6 C3 1_555 1_555
N7 C5 1_555 1_555
N8 C18 1_555 1_555
N9 C87 1_555 1_555
N10 C85 1_555 1_555
N11 C15 1_555 1_555
N12 C13 1_555 1_555
N13 C21 1_555 1_555
N14 C23 1_555 1_555
N15 C72 1_555 1_555
N16 C75 1_555 1_555
N17 C77 1_555 1_555
N18 C105 1_555 1_555
N19 C103 1_555 1_555
N20 C69 1_555 1_555
N21 C67 1_555 1_555
N22 C36 1_555 1_555
N23 C39 1_555 1_555
N24 C41 1_555 1_555
N25 C33 1_555 1_555
N26 C31 1_555 1_555
N27 C93 1_555 1_555
N28 C95 1_555 1_555
Cd1 N1 1_555 1_555
Cd2 N8 1_555 1_555
Cd3 N15 1_555 1_555
Cd4 N22 1_555 1_555
C109 F1 1_555 1_555
O1 S1 1_555 1_555
O2 S1 1_555 1_555
O3 S1 1_555 1_555
F2 C109 1_555 1_555
F3 C109 1_555 1_555
S1 C109 1_555 1_555
C110 F4 1_555 1_555
O4 S2 1_555 1_555
O5 S2 1_555 1_555
O6 S2 1_555 1_555
F5 C110 1_555 1_555
F6 C110 1_555 1_555
S2 C110 1_555 1_555
C111 F7 1_555 1_555
O7 S3 1_555 1_555
O8 S3 1_555 1_555
O9 S3 1_555 1_555
F8 C111 1_555 1_555
F9 C111 1_555 1_555
S3 C111 1_555 1_555
C112 F10 1_555 1_555
O10 S4 1_555 1_555
O11 S4 1_555 1_555
O12 S4 1_555 1_555
F11 C112 1_555 1_555
F12 C112 1_555 1_555
S4 C112 1_555 1_555
C113 F13 1_555 1_555
F14 C113 1_555 1_555
F15 C113 1_555 1_555
O13 S5 1_555 1_555
O14 S5 1_555 1_555
O15 S5 1_555 1_555
S5 C113 1_555 1_555
N29 C114 1_555 1_555
C114 C115 1_555 1_555
C115 H121 1_555 1_555
H122 C115 1_555 1_555
H123 C115 1_555 1_555
N30 C116 1_555 1_555
C116 C117 1_555 1_555
C117 H124 1_555 1_555
H125 C117 1_555 1_555
H126 C117 1_555 1_555
N31 C118 1_555 1_555
C118 C119 1_555 1_555
C119 H127 1_555 1_555
H128 C119 1_555 1_555
H129 C119 1_555 1_555
N32 C120 1_555 1_555
C120 C121 1_555 1_555
C121 H130 1_555 1_555
H131 C121 1_555 1_555
H132 C121 1_555 1_555
N33 C122 1_555 1_555
C122 C123 1_555 1_555
C123 H133 1_555 1_555
H134 C123 1_555 1_555
H135 C123 1_555 1_555
N34 C124 1_555 1_555
C124 C125 1_555 1_555
C125 H136 1_555 1_555
H137 C125 1_555 1_555
H138 C125 1_555 1_555
S6 O16 1_555 1_555
O17 S6 1_555 1_555
O18 S6 1_555 1_555
F16 C126 1_555 1_555
F17 C126 1_555 1_555
F18 C126 1_555 1_555
C126 S6 1_555 1_555
C4 N6 1_555 1_555
C9 N7 1_555 1_555
C14 N12 1_555 1_555
C16 N11 1_555 1_555
C19 N8 1_555 1_555
C22 N13 1_555 1_555
C27 N14 1_555 1_555
C32 N26 1_555 1_555
C34 N25 1_555 1_555
C37 N22 1_555 1_555
C40 N23 1_555 1_555
C45 N24 1_555 1_555
C50 N3 1_555 1_555
C52 N2 1_555 1_555
C54 N1 1_555 1_555
C55 N1 1_555 1_555
C58 N4 1_555 1_555
C63 N5 1_555 1_555
C68 N21 1_555 1_555
C70 N20 1_555 1_555
C73 N15 1_555 1_555
C76 N16 1_555 1_555
C81 N17 1_555 1_555
C86 N10 1_555 1_555
C88 N9 1_555 1_555
C90 N8 1_555 1_555
C91 N22 1_555 1_555
C94 N27 1_555 1_555
C99 N28 1_555 1_555
C104 N19 1_555 1_555
C106 N18 1_555 1_555
C108 N15 1_555 1_555
N2 Cd1 1_555 1_555
N3 Cd1 1_555 1_555
N4 Cd1 1_555 1_555
N5 Cd1 1_555 1_555
N6 Cd1 1_555 1_555
N7 Cd1 1_555 1_555
N9 Cd2 1_555 1_555
N10 Cd2 1_555 1_555
N11 Cd2 1_555 1_555
N12 Cd2 1_555 1_555
N13 Cd2 1_555 1_555
N14 Cd2 1_555 1_555
N16 Cd3 1_555 1_555
N17 Cd3 1_555 1_555
N18 Cd3 1_555 1_555
N19 Cd3 1_555 1_555
N20 Cd3 1_555 1_555
N21 Cd3 1_555 1_555
N23 Cd4 1_555 1_555
N24 Cd4 1_555 1_555
N25 Cd4 1_555 1_555
N26 Cd4 1_555 1_555
N27 Cd4 1_555 1_555
N28 Cd4 1_555 1_555

#END
