
#######################################################################
#
#                 Cambridge Crystallographic Data Centre
#                                CCDC 
#
#######################################################################
#
# If this CIF has been generated from an entry in the Cambridge 
# Structural Database, then it will include bibliographic, chemical, 
# crystal, experimental, refinement or atomic coordinate data resulting 
# from the CCDC's data processing and validation procedures.
#
#######################################################################

data_KICROF
_chemical_formula_moiety         'C78 H66 Cd2 N12 4+,4(C1 F3 O3 S1 1-),C2 H3 N1'
_chemical_name_systematic        
"tris(\m~2~-N,N'-(3,3'-Bipyridine-6,6'-diyldimethylylidene)bis(1-phenylmethanamine))-tri-cadmium(ii) tetrakis(trifluoromethanesulfonate) acetonitrile solvate"
_symmetry_cell_setting           monoclinic
_symmetry_space_group_name_H-M   'C 2/c'
_symmetry_Int_Tables_number      15
_space_group_name_Hall           '-C 2yn'
loop_
_symmetry_equiv_pos_site_id
_symmetry_equiv_pos_as_xyz
1 x,y,z
2 -x,y,1/2-z
3 1/2+x,1/2+y,z
4 1/2-x,1/2+y,1/2-z
5 -x,-y,-z
6 x,-y,1/2+z
7 1/2-x,1/2-y,-z
8 1/2+x,1/2-y,1/2+z
_cell_length_a                   17.001(3)
_cell_length_b                   16.210(3)
_cell_length_c                   31.541(6)
_cell_angle_alpha                90
_cell_angle_beta                 95.76(3)
_cell_angle_gamma                90
_cell_volume                     8648.38
_exptl_crystal_colour            colorless
_exptl_crystal_description       block
_cell_formula_units_Z            4
loop_
_atom_site_label
_atom_site_type_symbol
_atom_site_fract_x
_atom_site_fract_y
_atom_site_fract_z
C1 C 0.2124(2) 0.0827(3) 0.42871(13)
H1 H 0.1566 0.0837 0.4225
C2 C 0.2589(2) 0.0410(3) 0.40174(12)
H2 H 0.2350 0.0127 0.3774
C3 C 0.3404(2) 0.0411(2) 0.41070(10)
H3 H 0.3722 0.0129 0.3923
C4 C 0.3764(2) 0.0819(2) 0.44629(10)
C5 C 0.3287(2) 0.1216(3) 0.47339(11)
H4 H 0.3520 0.1483 0.4984
C6 C 0.2468(3) 0.1222(3) 0.46400(13)
H5 H 0.2148 0.1504 0.4823
C7 C 0.4645(2) 0.0824(3) 0.45615(10)
H6 H 0.4795 0.1223 0.4793
H7 H 0.4827 0.0270 0.4660
C8 C 0.5532(2) 0.0551(2) 0.40509(10)
H8 H 0.5663 0.0062 0.4209
C9 C 0.59082(19) 0.0723(2) 0.36561(9)
C10 C 0.6410(2) 0.0153(2) 0.34987(11)
H9 H 0.6551 -0.0337 0.3653
C11 C 0.6705(2) 0.0311(2) 0.31095(11)
H10 H 0.7050 -0.0072 0.2995
C12 C 0.64910(19) 0.1028(2) 0.28924(10)
C13 C 0.60073(18) 0.1589(2) 0.30867(9)
H11 H 0.5885 0.2100 0.2949
C14 C 0.51013(18) 0.3519(2) 0.20435(9)
H12 H 0.5367 0.3083 0.2199
C15 C 0.49226(18) 0.4229(2) 0.22659(9)
C16 C 0.45859(19) 0.4888(2) 0.20324(10)
H13 H 0.4482 0.5394 0.2168
C17 C 0.4405(2) 0.4791(2) 0.15954(10)
H14 H 0.4177 0.5235 0.1428
C18 C 0.45569(18) 0.4046(2) 0.14044(10)
C19 C 0.43072(19) 0.3885(2) 0.09530(10)
H15 H 0.4016 0.4293 0.0788
C20 C 0.4128(2) 0.3050(3) 0.03398(10)
H16 H 0.4555 0.2935 0.0156
H17 H 0.3836 0.3544 0.0226
C21 C 0.35770(19) 0.2326(2) 0.03333(10)
C22 C 0.3075(2) 0.2212(3) 0.06519(11)
H18 H 0.3067 0.2608 0.0874
C23 C 0.2592(2) 0.1536(3) 0.06483(14)
H19 H 0.2250 0.1472 0.0867
C24 C 0.3556(2) 0.1745(3) 0.00075(12)
H20 H 0.3878 0.1818 -0.0219
C25 C 0.3070(3) 0.1062(3) 0.00106(15)
H21 H 0.3064 0.0667 -0.0212
C26 C 0.2592(3) 0.0950(3) 0.03358(16)
H22 H 0.2269 0.0473 0.0342
C27 C 0.6100(2) 0.1456(2) 0.21531(9)
H23 H 0.5572 0.1364 0.2215
C28 C 0.6706(2) 0.1249(2) 0.24622(10)
C29 C 0.7074(2) 0.2363(2) 0.12978(10)
H24 H 0.7594 0.2474 0.1227
C30 C 0.7471(2) 0.1319(2) 0.23585(10)
H25 H 0.7902 0.1140 0.2552
C31 C 0.7602(2) 0.1656(2) 0.19670(10)
H26 H 0.8126 0.1718 0.1891
C32 C 0.69651(19) 0.1897(2) 0.16901(10)
N1 N 0.50365(16) 0.10547(19) 0.41785(8)
N2 N 0.57112(15) 0.14383(17) 0.34560(7)
N3 N 0.49216(14) 0.34191(17) 0.16281(8)
N4 N 0.44735(15) 0.32094(19) 0.07783(8)
N5 N 0.62108(15) 0.17778(17) 0.17735(8)
N6 N 0.64847(16) 0.26174(18) 0.10534(8)
Cd1 Cd 0.523049(13) 0.225544(15) 0.122573(6)
C33 C 0.6642(2) 0.3160(3) 0.06970(12)
H27 H 0.6324 0.2990 0.0431
H28 H 0.7208 0.3146 0.0650
C34 C 0.6316(5) 0.3966(3) 0.0719(3)
C35 C 0.6435(4) 0.4403(4) 0.1099(2)
H29 H 0.6731 0.4163 0.1339
C36 C 0.6120(4) 0.5190(4) 0.1128(2)
H30 H 0.6201 0.5488 0.1388
C37 C 0.5687(4) 0.5541(3) 0.0776(3)
H31 H 0.5472 0.6079 0.0796
C38 C 0.5568(4) 0.5104(4) 0.0396(2)
H32 H 0.5272 0.5344 0.0155
C39 C 0.5883(4) 0.4317(4) 0.0367(2)
H33 H 0.5801 0.4019 0.0107
C14A C 0.48987(18) 0.3519(2) 0.29565(9)
H12A H 0.4633 0.3083 0.2801
C15A C 0.50774(18) 0.4229(2) 0.27341(9)
C16A C 0.54141(19) 0.4888(2) 0.29676(10)
H13A H 0.5518 0.5394 0.2832
C17A C 0.5595(2) 0.4791(2) 0.34046(10)
H14A H 0.5823 0.5235 0.3572
C18A C 0.54431(18) 0.4046(2) 0.35956(10)
C19A C 0.56928(19) 0.3885(2) 0.40470(10)
H15A H 0.5984 0.4293 0.4212
C20A C 0.5872(2) 0.3050(3) 0.46602(10)
H16A H 0.5445 0.2935 0.4844
H17A H 0.6164 0.3544 0.4774
C21A C 0.64230(19) 0.2326(2) 0.46667(10)
C22A C 0.6925(2) 0.2212(3) 0.43481(11)
H18A H 0.6933 0.2608 0.4126
C23A C 0.7408(2) 0.1536(3) 0.43517(14)
H19A H 0.7750 0.1472 0.4133
C24A C 0.6444(2) 0.1745(3) 0.49925(12)
H20A H 0.6122 0.1818 0.5219
C25A C 0.6930(3) 0.1062(3) 0.49894(15)
H21A H 0.6936 0.0667 0.5212
C26A C 0.7408(3) 0.0950(3) 0.46642(16)
H22A H 0.7731 0.0473 0.4658
N3A N 0.50784(14) 0.34191(17) 0.33719(8)
N4A N 0.55265(15) 0.32094(19) 0.42217(8)
C1A C 0.7876(2) 0.0827(3) 0.07129(13)
H1A H 0.8434 0.0837 0.0775
C2A C 0.7411(2) 0.0410(3) 0.09826(12)
H2A H 0.7650 0.0127 0.1226
C3A C 0.6596(2) 0.0411(2) 0.08930(10)
H3A H 0.6278 0.0129 0.1077
C4A C 0.6236(2) 0.0819(2) 0.05371(10)
C5A C 0.6713(2) 0.1216(3) 0.02661(11)
H4A H 0.6480 0.1483 0.0016
C6A C 0.7532(3) 0.1222(3) 0.03600(13)
H5A H 0.7852 0.1504 0.0177
C7A C 0.5355(2) 0.0824(3) 0.04385(10)
H6A H 0.5205 0.1223 0.0207
H7A H 0.5173 0.0270 0.0340
C8A C 0.4468(2) 0.0551(2) 0.09491(10)
H8A H 0.4337 0.0062 0.0791
C9A C 0.40918(19) 0.0723(2) 0.13439(9)
C10A C 0.3590(2) 0.0153(2) 0.15013(11)
H9A H 0.3449 -0.0337 0.1347
C11A C 0.3295(2) 0.0311(2) 0.18905(11)
H10A H 0.2950 -0.0072 0.2005
C12A C 0.35090(19) 0.1028(2) 0.21076(10)
C13A C 0.39927(18) 0.1589(2) 0.19133(9)
H11A H 0.4115 0.2100 0.2051
C27A C 0.3900(2) 0.1456(2) 0.28469(9)
H23A H 0.4428 0.1364 0.2785
C28A C 0.3294(2) 0.1249(2) 0.25378(10)
C29A C 0.2926(2) 0.2363(2) 0.37022(10)
H24A H 0.2406 0.2474 0.3773
C30A C 0.2529(2) 0.1319(2) 0.26415(10)
H25A H 0.2098 0.1140 0.2448
C31A C 0.2398(2) 0.1656(2) 0.30330(10)
H26A H 0.1874 0.1718 0.3109
C32A C 0.30349(19) 0.1897(2) 0.33099(10)
N1A N 0.49635(16) 0.10547(19) 0.08215(8)
N2A N 0.42888(15) 0.14383(17) 0.15440(7)
N5A N 0.37892(15) 0.17778(17) 0.32265(8)
N6A N 0.35153(16) 0.26174(18) 0.39466(8)
Cd1A Cd 0.476951(13) 0.225544(15) 0.377427(6)
C33A C 0.3358(2) 0.3160(3) 0.43030(12)
H27A H 0.3676 0.2990 0.4569
H28A H 0.2792 0.3146 0.4350
C34A C 0.3684(5) 0.3966(3) 0.4281(3)
C35A C 0.3565(4) 0.4403(4) 0.3901(2)
H29A H 0.3269 0.4163 0.3661
C36A C 0.3880(4) 0.5190(4) 0.3872(2)
H30A H 0.3799 0.5488 0.3612
C37A C 0.4313(4) 0.5541(3) 0.4224(3)
H31A H 0.4528 0.6079 0.4204
C38A C 0.4432(4) 0.5104(4) 0.4604(2)
H32A H 0.4728 0.5344 0.4845
C39A C 0.4117(4) 0.4317(4) 0.4633(2)
H33A H 0.4199 0.4019 0.4893
C46 C 0.2124(4) 0.3617(4) 0.1969(2)
O1 O 0.33743(16) 0.31187(19) 0.23832(10)
O2 O 0.2299(2) 0.3524(2) 0.27758(12)
O3 O 0.30462(19) 0.4566(2) 0.24426(13)
F1 F 0.1795(3) 0.2882(3) 0.19434(15)
F2 F 0.2517(3) 0.3724(3) 0.16267(12)
F3 F 0.1555(3) 0.4179(3) 0.1962(2)
S1 S 0.27893(6) 0.37199(7) 0.24469(3)
S2 S 0.57264(13) 0.2344(2) -0.08525(8)
O4 O 0.552(2) 0.2724(10) -0.0466(7)
O5 O 0.5769(4) 0.2930(5) -0.1194(3)
O6 O 0.6356(10) 0.1755(14) -0.0814(9)
C47 C 0.4847(5) 0.1755(6) -0.1018(2)
F4 F 0.4188(4) 0.2209(5) -0.1059(2)
F5 F 0.4869(5) 0.1330(5) -0.1380(2)
F6 F 0.4735(4) 0.1192(5) -0.0719(3)
C49 C 0.5000 0.1641(13) -0.2500
N7 N 0.5000 0.319(2) -0.2500
C50 C 0.5000 0.265(3) -0.2500
C40? C 0.6386(5) 0.4076(3) 0.0841(3)
C41? C 0.6570(5) 0.4343(4) 0.1259(2)
H34? H 0.6866 0.3997 0.1459
C42? C 0.6321(4) 0.5115(4) 0.1382(2)
H35? H 0.6447 0.5297 0.1667
C43? C 0.5889(4) 0.5621(3) 0.1089(2)
H36? H 0.5719 0.6149 0.1174
C44? C 0.5705(4) 0.5354(4) 0.0672(2)
H37? H 0.5409 0.5700 0.0472
C45? C 0.5954(4) 0.4582(4) 0.0548(2)
H38? H 0.5828 0.4400 0.0263
S3? S 0.55738(17) 0.1999(2) -0.07454(9)
F7? F 0.5409(9) 0.2966(7) -0.1410(3)
F8? F 0.4347(6) 0.2543(8) -0.1217(4)
F9? F 0.5053(8) 0.1730(7) -0.1527(3)
O7? O 0.5164(7) 0.1335(7) -0.0605(4)
C48? C 0.5077(7) 0.2319(8) -0.1245(3)
O8? O 0.6295(15) 0.1757(18) -0.0887(13)
O9? O 0.560(3) 0.2676(15) -0.0486(10)
loop_
_geom_bond_atom_site_label_1
_geom_bond_atom_site_label_2
_geom_bond_site_symmetry_1
_geom_bond_site_symmetry_2
C1 H1 1_555 1_555
C2 C1 1_555 1_555
H2 C2 1_555 1_555
C3 C2 1_555 1_555
H3 C3 1_555 1_555
C4 C3 1_555 1_555
C5 C4 1_555 1_555
H4 C5 1_555 1_555
C6 C1 1_555 1_555
H5 C6 1_555 1_555
C7 C4 1_555 1_555
H6 C7 1_555 1_555
H7 C7 1_555 1_555
C8 H8 1_555 1_555
C9 C8 1_555 1_555
C10 C9 1_555 1_555
H9 C10 1_555 1_555
C11 C10 1_555 1_555
H10 C11 1_555 1_555
C12 C11 1_555 1_555
C13 C12 1_555 1_555
H11 C13 1_555 1_555
C14 H12 1_555 1_555
C15 C14 1_555 1_555
C16 C15 1_555 1_555
H13 C16 1_555 1_555
C17 C16 1_555 1_555
H14 C17 1_555 1_555
C18 C17 1_555 1_555
C19 C18 1_555 1_555
H15 C19 1_555 1_555
C20 H16 1_555 1_555
H17 C20 1_555 1_555
C21 C20 1_555 1_555
C22 C21 1_555 1_555
H18 C22 1_555 1_555
C23 C22 1_555 1_555
H19 C23 1_555 1_555
C24 C21 1_555 1_555
H20 C24 1_555 1_555
C25 C24 1_555 1_555
H21 C25 1_555 1_555
C26 C23 1_555 1_555
H22 C26 1_555 1_555
C27 H23 1_555 1_555
C28 C12 1_555 1_555
C29 H24 1_555 1_555
C30 C28 1_555 1_555
H25 C30 1_555 1_555
C31 C30 1_555 1_555
H26 C31 1_555 1_555
C32 C29 1_555 1_555
N1 C7 1_555 1_555
N2 C9 1_555 1_555
N3 C14 1_555 1_555
N4 C19 1_555 1_555
N5 C27 1_555 1_555
N6 C29 1_555 1_555
Cd1 N3 1_555 1_555
C33 N6 1_555 1_555
H27 C33 1_555 1_555
H28 C33 1_555 1_555
C34 C33 1_555 1_555
C35 C34 1_555 1_555
H29 C35 1_555 1_555
C36 C35 1_555 1_555
H30 C36 1_555 1_555
C37 C36 1_555 1_555
H31 C37 1_555 1_555
C38 C37 1_555 1_555
H32 C38 1_555 1_555
C39 C34 1_555 1_555
H33 C39 1_555 1_555
C46 F1 1_555 1_555
O1 S1 1_555 1_555
O2 S1 1_555 1_555
O3 S1 1_555 1_555
F2 C46 1_555 1_555
F3 C46 1_555 1_555
S1 C46 1_555 1_555
S2 O4 1_555 1_555
O5 S2 1_555 1_555
O6 S2 1_555 1_555
C47 S2 1_555 1_555
F4 C47 1_555 1_555
F5 C47 1_555 1_555
F6 C47 1_555 1_555
C49 C50 1_555 1_555
N7 C50 1_555 1_555
C14A H12A 1_555 1_555
C15A C15 1_555 1_555
C16A C15A 1_555 1_555
H13A C16A 1_555 1_555
C17A C16A 1_555 1_555
H14A C17A 1_555 1_555
C18A C17A 1_555 1_555
C19A C18A 1_555 1_555
H15A C19A 1_555 1_555
C20A H16A 1_555 1_555
H17A C20A 1_555 1_555
C21A C20A 1_555 1_555
C22A C21A 1_555 1_555
H18A C22A 1_555 1_555
C23A C22A 1_555 1_555
H19A C23A 1_555 1_555
C24A C21A 1_555 1_555
H20A C24A 1_555 1_555
C25A C24A 1_555 1_555
H21A C25A 1_555 1_555
C26A C23A 1_555 1_555
H22A C26A 1_555 1_555
N3A C14A 1_555 1_555
N4A C19A 1_555 1_555
C1A H1A 1_555 1_555
C2A C1A 1_555 1_555
H2A C2A 1_555 1_555
C3A C2A 1_555 1_555
H3A C3A 1_555 1_555
C4A C3A 1_555 1_555
C5A C4A 1_555 1_555
H4A C5A 1_555 1_555
C6A C1A 1_555 1_555
H5A C6A 1_555 1_555
C7A C4A 1_555 1_555
H6A C7A 1_555 1_555
H7A C7A 1_555 1_555
C8A H8A 1_555 1_555
C9A C8A 1_555 1_555
C10A C9A 1_555 1_555
H9A C10A 1_555 1_555
C11A C10A 1_555 1_555
H10A C11A 1_555 1_555
C12A C11A 1_555 1_555
C13A C12A 1_555 1_555
H11A C13A 1_555 1_555
C27A H23A 1_555 1_555
C28A C12A 1_555 1_555
C29A H24A 1_555 1_555
C30A C28A 1_555 1_555
H25A C30A 1_555 1_555
C31A C30A 1_555 1_555
H26A C31A 1_555 1_555
C32A C29A 1_555 1_555
N1A Cd1 1_555 1_555
N2A Cd1 1_555 1_555
N5A C27A 1_555 1_555
N6A C29A 1_555 1_555
Cd1A N1 1_555 1_555
C33A N6A 1_555 1_555
H27A C33A 1_555 1_555
H28A C33A 1_555 1_555
C34A C33A 1_555 1_555
C35A C34A 1_555 1_555
H29A C35A 1_555 1_555
C36A C35A 1_555 1_555
H30A C36A 1_555 1_555
C37A C36A 1_555 1_555
H31A C37A 1_555 1_555
C38A C37A 1_555 1_555
H32A C38A 1_555 1_555
C39A C34A 1_555 1_555
H33A C39A 1_555 1_555
C5 C6 1_555 1_555
C8 N1 1_555 1_555
C13 N2 1_555 1_555
C18 N3 1_555 1_555
C20 N4 1_555 1_555
C25 C26 1_555 1_555
C27 C28 1_555 1_555
C31 C32 1_555 1_555
C32 N5 1_555 1_555
N2 Cd1A 1_555 1_555
N4 Cd1 1_555 1_555
N5 Cd1 1_555 1_555
N6 Cd1 1_555 1_555
C38 C39 1_555 1_555
C14A C15A 1_555 1_555
C18A N3A 1_555 1_555
C20A N4A 1_555 1_555
C25A C26A 1_555 1_555
N3A Cd1A 1_555 1_555
N4A Cd1A 1_555 1_555
C5A C6A 1_555 1_555
C7A N1A 1_555 1_555
C8A N1A 1_555 1_555
C9A N2A 1_555 1_555
C13A N2A 1_555 1_555
C27A C28A 1_555 1_555
C31A C32A 1_555 1_555
C32A N5A 1_555 1_555
N5A Cd1A 1_555 1_555
N6A Cd1A 1_555 1_555
C38A C39A 1_555 1_555

#END
