
#######################################################################
#
#                 Cambridge Crystallographic Data Centre
#                                CCDC 
#
#######################################################################
#
# If this CIF has been generated from an entry in the Cambridge 
# Structural Database, then it will include bibliographic, chemical, 
# crystal, experimental, refinement or atomic coordinate data resulting 
# from the CCDC's data processing and validation procedures.
#
#######################################################################

data_KINCOC
_chemical_formula_moiety         
'C48 H36 N12 Pd2 4+,4(C1 F3 O3 S1 1-),4(C2 H3 N1)'
_chemical_name_systematic        
"bis(\m-1,1'-(1,3-phenylene)di(1H-imidazole))-bis(1,10-phenanthroline)-di-palladium tetrakis(trifluoromethanesulfonate) acetonitrile solvate"
_symmetry_cell_setting           monoclinic
_symmetry_space_group_name_H-M   'P 21/c'
_symmetry_Int_Tables_number      14
_space_group_name_Hall           '-P 2ybc'
loop_
_symmetry_equiv_pos_site_id
_symmetry_equiv_pos_as_xyz
1 x,y,z
2 -x,1/2+y,1/2-z
3 -x,-y,-z
4 x,1/2-y,1/2+z
_cell_length_a                   13.800(6)
_cell_length_b                   17.544(7)
_cell_length_c                   16.071(6)
_cell_angle_alpha                90
_cell_angle_beta                 98.55(2)
_cell_angle_gamma                90
_cell_volume                     3847.66
_exptl_crystal_colour            colorless
_exptl_crystal_description       block
_cell_formula_units_Z            2
loop_
_atom_site_label
_atom_site_type_symbol
_atom_site_fract_x
_atom_site_fract_y
_atom_site_fract_z
C1 C 0.3027(10) 0.5838(8) 0.0789(8)
H1 H 0.2701 0.5807 0.1255
C2 C 0.2494(12) 0.5761(9) -0.0031(10)
H2 H 0.1818 0.5697 -0.0103
C3 C 0.2963(11) 0.5781(9) -0.0699(9)
H3 H 0.2607 0.5718 -0.1233
C4 C 0.3967(11) 0.5893(8) -0.0617(9)
C5 C 0.4494(16) 0.5910(8) -0.1301(7)
H4 H 0.4179 0.5845 -0.1850
C6 C 0.5517(14) 0.6028(9) -0.1131(9)
H5 H 0.5867 0.6066 -0.1581
C7 C 0.6022(12) 0.6089(6) -0.0317(8)
C8 C 0.7045(12) 0.6198(8) -0.0105(10)
H6 H 0.7437 0.6212 -0.0529
C9 C 0.7460(12) 0.6282(9) 0.0705(10)
H7 H 0.8128 0.6372 0.0841
C10 C 0.6862(9) 0.6232(7) 0.1338(8)
H8 H 0.7150 0.6270 0.1898
C11 C 0.5478(8) 0.6053(5) 0.0358(7)
C12 C 0.4461(9) 0.5964(5) 0.0214(6)
C13 C 0.6421(9) 0.6945(6) 0.3254(8)
H9 H 0.6311 0.7410 0.2978
C14 C 0.7084(10) 0.6824(7) 0.3943(8)
H10 H 0.7521 0.7176 0.4222
C15 C 0.6283(8) 0.5745(6) 0.3577(6)
H11 H 0.6086 0.5237 0.3572
C16 C 0.7544(8) 0.5660(6) 0.4841(6)
C17 C 0.8541(9) 0.5756(9) 0.4995(8)
H12 H 0.8843 0.6104 0.4681
C18 C 0.9106(9) 0.5328(10) 0.5627(9)
H13 H 0.9786 0.5361 0.5702
C19 C 0.8659(9) 0.4869(8) 0.6125(8)
H14 H 0.9024 0.4613 0.6573
C20 C 0.7657(7) 0.4783(6) 0.5963(7)
C21 C 0.7107(7) 0.5179(6) 0.5325(6)
H15 H 0.6431 0.5116 0.5226
C22 C 0.7441(10) 0.3533(8) 0.6737(9)
H16 H 0.7963 0.3252 0.6592
C23 C 0.6800(10) 0.3317(7) 0.7234(8)
H17 H 0.6797 0.2848 0.7503
C24 C 0.6380(8) 0.4469(6) 0.6837(6)
H18 H 0.6056 0.4936 0.6776
N1 N 0.3979(7) 0.5953(5) 0.0896(5)
N2 N 0.5912(7) 0.6133(5) 0.1167(5)
N3 N 0.5925(6) 0.6273(5) 0.3016(5)
N4 N 0.6981(7) 0.6067(5) 0.4153(5)
N5 N 0.7159(7) 0.4278(6) 0.6477(5)
N6 N 0.6145(6) 0.3897(5) 0.7288(5)
Pd1 Pd 0.49214(6) 0.61078(4) 0.19836(5)
C1B C 0.6973(10) 0.4162(8) 0.9211(8)
H1B H 0.7299 0.4193 0.8745
C2B C 0.7506(12) 0.4239(9) 1.0031(10)
H2B H 0.8182 0.4303 1.0103
C3B C 0.7037(11) 0.4219(9) 1.0699(9)
H3B H 0.7393 0.4282 1.1233
C4B C 0.6033(11) 0.4107(8) 1.0617(9)
C5B C 0.5506(16) 0.4090(8) 1.1301(7)
H4B H 0.5821 0.4155 1.1850
C6B C 0.4483(14) 0.3972(9) 1.1131(9)
H5B H 0.4133 0.3934 1.1581
C7B C 0.3978(12) 0.3911(6) 1.0317(8)
C8B C 0.2955(12) 0.3802(8) 1.0105(10)
H6B H 0.2563 0.3788 1.0529
C9B C 0.2540(12) 0.3718(9) 0.9295(10)
H7B H 0.1872 0.3628 0.9159
C10B C 0.3138(9) 0.3768(7) 0.8662(8)
H8B H 0.2850 0.3730 0.8102
C11B C 0.4522(8) 0.3947(5) 0.9642(7)
C12B C 0.5539(9) 0.4036(5) 0.9786(6)
C13B C 0.3579(9) 0.3055(6) 0.6746(8)
H9B H 0.3689 0.2590 0.7022
C14B C 0.2916(10) 0.3176(7) 0.6057(8)
H10B H 0.2479 0.2824 0.5778
C15B C 0.3717(8) 0.4255(6) 0.6423(6)
H11B H 0.3914 0.4763 0.6428
C16B C 0.2456(8) 0.4340(6) 0.5159(6)
C17B C 0.1459(9) 0.4244(9) 0.5005(8)
H12B H 0.1157 0.3896 0.5319
C18B C 0.0894(9) 0.4672(10) 0.4373(9)
H13B H 0.0214 0.4639 0.4298
C19B C 0.1341(9) 0.5131(8) 0.3875(8)
H14B H 0.0976 0.5387 0.3427
C20B C 0.2343(7) 0.5217(6) 0.4037(7)
C21B C 0.2893(7) 0.4821(6) 0.4675(6)
H15B H 0.3569 0.4884 0.4774
C22B C 0.2559(10) 0.6467(8) 0.3263(9)
H16B H 0.2037 0.6748 0.3408
C23B C 0.3200(10) 0.6683(7) 0.2766(8)
H17B H 0.3203 0.7152 0.2497
C24B C 0.3620(8) 0.5531(6) 0.3163(6)
H18B H 0.3944 0.5064 0.3224
N1B N 0.6021(7) 0.4047(5) 0.9104(5)
N2B N 0.4088(7) 0.3867(5) 0.8833(5)
N3B N 0.4075(6) 0.3727(5) 0.6984(5)
N4B N 0.3019(7) 0.3933(5) 0.5847(5)
N5B N 0.2841(7) 0.5722(6) 0.3523(5)
N6B N 0.3855(6) 0.6103(5) 0.2712(5)
Pd1B Pd 0.50786(6) 0.38922(4) 0.80164(5)
S1 S 0.4876(4) 0.8411(2) 0.1403(3)
C25 C 0.4417(12) 0.8315(8) 0.0312(7)
O1 O 0.4730(16) 0.9173(6) 0.1627(10)
O2 O 0.4416(14) 0.7809(10) 0.1809(15)
O3 O 0.5928(8) 0.8243(13) 0.1418(16)
F1 F 0.3467(11) 0.8418(14) 0.0243(15)
F2 F 0.4609(18) 0.7654(7) -0.0019(9)
F3 F 0.4799(13) 0.8852(9) -0.0123(12)
S4 S -0.0135(7) 0.7134(7) -0.0059(11)
C28 C 0.1023(12) 0.7601(13) 0.0079(17)
F10 F 0.0903(18) 0.8346(10) 0.008(2)
F11 F 0.156(2) 0.7354(15) 0.0774(15)
F12 F 0.1463(16) 0.7398(15) -0.0562(16)
O10 O -0.044(3) 0.7447(17) -0.0886(14)
O11 O 0.004(3) 0.6324(9) -0.004(2)
O12 O -0.069(2) 0.7407(16) 0.0569(19)
C29 C 0.825(2) 0.8171(18) 0.2101(19)
H19 H 0.8293 0.7703 0.2414
H20 H 0.8871 0.8278 0.1925
H21 H 0.7757 0.8123 0.1615
C30 C 0.7983(17) 0.8808(14) 0.2645(15)
N7 N 0.7726(15) 0.9322(15) 0.3009(12)
C31 C 0.088(3) 0.405(3) 0.736(3)
H22 H 0.0498 0.4017 0.7812
H23 H 0.0481 0.3917 0.6840
H24 H 0.1422 0.3698 0.7467
C32 C 0.125(4) 0.482(3) 0.731(3)
N8 N 0.167(4) 0.534(3) 0.707(3)
S2? S 0.4836(16) 0.8261(13) 0.0316(14)
C26? C 0.466(2) 0.8432(16) 0.1372(15)
O4? O 0.396(2) 0.781(2) 0.010(3)
O5? O 0.571(2) 0.781(2) 0.035(2)
O6? O 0.485(3) 0.892(2) -0.023(4)
F4? F 0.375(2) 0.866(2) 0.129(3)
F5? F 0.528(3) 0.8980(19) 0.163(3)
F6? F 0.483(3) 0.7808(16) 0.182(2)
S3? S 0.075(3) 0.792(2) 0.018(3)
C27? C 0.004(3) 0.721(2) -0.043(4)
F7? F 0.036(5) 0.720(5) -0.117(4)
F8? F 0.007(7) 0.652(3) -0.012(6)
F9? F -0.088(3) 0.745(4) -0.054(5)
O7? O 0.035(7) 0.764(5) 0.092(5)
O8? O 0.064(7) 0.874(3) 0.010(7)
O9? O 0.176(3) 0.769(5) 0.020(6)
C33? C -0.015(4) 0.421(3) 0.833(3)
H25? H -0.0074 0.4054 0.8903
H26? H -0.0828 0.4288 0.8117
H27? H 0.0118 0.3831 0.7998
C34? C 0.038(3) 0.492(3) 0.827(3)
N9? N 0.066(3) 0.545(3) 0.792(3)
loop_
_geom_bond_atom_site_label_1
_geom_bond_atom_site_label_2
_geom_bond_site_symmetry_1
_geom_bond_site_symmetry_2
C1 H1 1_555 1_555
C2 C1 1_555 1_555
H2 C2 1_555 1_555
C3 C2 1_555 1_555
H3 C3 1_555 1_555
C4 C3 1_555 1_555
C5 C4 1_555 1_555
H4 C5 1_555 1_555
C6 C5 1_555 1_555
H5 C6 1_555 1_555
C7 C6 1_555 1_555
C8 C7 1_555 1_555
H6 C8 1_555 1_555
C9 C8 1_555 1_555
H7 C9 1_555 1_555
C10 C9 1_555 1_555
H8 C10 1_555 1_555
C11 C7 1_555 1_555
C12 C4 1_555 1_555
C13 H9 1_555 1_555
C14 C13 1_555 1_555
H10 C14 1_555 1_555
C15 H11 1_555 1_555
C16 C17 1_555 1_555
C17 H12 1_555 1_555
C18 C17 1_555 1_555
H13 C18 1_555 1_555
C19 C18 1_555 1_555
H14 C19 1_555 1_555
C20 C19 1_555 1_555
C21 C16 1_555 1_555
H15 C21 1_555 1_555
C22 H16 1_555 1_555
C23 C22 1_555 1_555
H17 C23 1_555 1_555
C24 H18 1_555 1_555
N1 C1 1_555 1_555
N2 C10 1_555 1_555
N3 C13 1_555 1_555
N4 C14 1_555 1_555
N5 C20 1_555 1_555
N6 C23 1_555 1_555
Pd1 N1 1_555 1_555
S1 C25 1_555 1_555
C25 F1 1_555 1_555
O1 S1 1_555 1_555
O2 S1 1_555 1_555
O3 S1 1_555 1_555
F2 C25 1_555 1_555
F3 C25 1_555 1_555
S4 C28 1_555 1_555
C28 F10 1_555 1_555
F11 C28 1_555 1_555
F12 C28 1_555 1_555
O10 S4 1_555 1_555
O11 S4 1_555 1_555
O12 S4 1_555 1_555
C29 H19 1_555 1_555
H20 C29 1_555 1_555
H21 C29 1_555 1_555
C30 C29 1_555 1_555
N7 C30 1_555 1_555
C31 H22 1_555 1_555
H23 C31 1_555 1_555
H24 C31 1_555 1_555
C32 C31 1_555 1_555
N8 C32 1_555 1_555
C1B H1B 1_555 1_555
C2B C1B 1_555 1_555
H2B C2B 1_555 1_555
C3B C2B 1_555 1_555
H3B C3B 1_555 1_555
C4B C3B 1_555 1_555
C5B C4B 1_555 1_555
H4B C5B 1_555 1_555
C6B C5B 1_555 1_555
H5B C6B 1_555 1_555
C7B C6B 1_555 1_555
C8B C7B 1_555 1_555
H6B C8B 1_555 1_555
C9B C8B 1_555 1_555
H7B C9B 1_555 1_555
C10B C9B 1_555 1_555
H8B C10B 1_555 1_555
C11B C7B 1_555 1_555
C12B C4B 1_555 1_555
C13B H9B 1_555 1_555
C14B C13B 1_555 1_555
H10B C14B 1_555 1_555
C15B H11B 1_555 1_555
C16B C17B 1_555 1_555
C17B H12B 1_555 1_555
C18B C17B 1_555 1_555
H13B C18B 1_555 1_555
C19B C18B 1_555 1_555
H14B C19B 1_555 1_555
C20B C19B 1_555 1_555
C21B C16B 1_555 1_555
H15B C21B 1_555 1_555
C22B H16B 1_555 1_555
C23B C22B 1_555 1_555
H17B C23B 1_555 1_555
C24B H18B 1_555 1_555
N1B C1B 1_555 1_555
N2B C10B 1_555 1_555
N3B C13B 1_555 1_555
N4B C14B 1_555 1_555
N5B C20B 1_555 1_555
N6B Pd1 1_555 1_555
Pd1B N6 1_555 1_555
C11 C12 1_555 1_555
C11 N2 1_555 1_555
C12 N1 1_555 1_555
C15 N3 1_555 1_555
C15 N4 1_555 1_555
C16 N4 1_555 1_555
C20 C21 1_555 1_555
C22 N5 1_555 1_555
C24 N5 1_555 1_555
C24 N6 1_555 1_555
N2 Pd1 1_555 1_555
N3 Pd1 1_555 1_555
C11B C12B 1_555 1_555
C11B N2B 1_555 1_555
C12B N1B 1_555 1_555
C15B N3B 1_555 1_555
C15B N4B 1_555 1_555
C16B N4B 1_555 1_555
C20B C21B 1_555 1_555
C22B N5B 1_555 1_555
C23B N6B 1_555 1_555
C24B N5B 1_555 1_555
C24B N6B 1_555 1_555
N1B Pd1B 1_555 1_555
N2B Pd1B 1_555 1_555
N3B Pd1B 1_555 1_555

#END
