
#######################################################################
#
#                 Cambridge Crystallographic Data Centre
#                                CCDC 
#
#######################################################################
#
# If this CIF has been generated from an entry in the Cambridge 
# Structural Database, then it will include bibliographic, chemical, 
# crystal, experimental, refinement or atomic coordinate data resulting 
# from the CCDC's data processing and validation procedures.
#
#######################################################################

data_LARZOU
_chemical_formula_moiety         'C100 H152 Fe2 O8 P8 Pt4,5(C1 H2 Cl2)'
_chemical_name_systematic        
"bis(\m~2~-Ferrocene-1,1'-dicarboxylato)-bis(\m~2~-phenanthrene-2,9-diyl)-tetrakis(trans-bis(triethylphosphine)-platinum(ii)) dichloromethane solvate"
_symmetry_cell_setting           triclinic
_symmetry_space_group_name_H-M   'P -1'
_symmetry_Int_Tables_number      2
_space_group_name_Hall           '-P 1'
loop_
_symmetry_equiv_pos_site_id
_symmetry_equiv_pos_as_xyz
1 x,y,z
2 -x,-y,-z
_cell_length_a                   11.03410(10)
_cell_length_b                   16.2572(3)
_cell_length_c                   17.7300(3)
_cell_angle_alpha                101.2892(7)
_cell_angle_beta                 96.4838(10)
_cell_angle_gamma                90.7274(10)
_cell_volume                     3097.01
_exptl_crystal_colour            orange
_exptl_crystal_description       plate
_cell_formula_units_Z            1
_exptl_crystal_recrystallization_method chloroform/dichloromethane/acetone
loop_
_atom_site_label
_atom_site_type_symbol
_atom_site_fract_x
_atom_site_fract_y
_atom_site_fract_z
Pt1 Pt 0.75683(2) -0.092845(14) 0.260231(13)
Pt2 Pt 0.862330(18) -0.320860(14) -0.284180(12)
Fe1 Fe 0.67565(7) -0.37764(5) -0.00522(4)
P1 P 0.5710(2) -0.04997(15) 0.20897(17)
P3 P 0.92718(14) -0.14313(11) 0.32019(10)
P4 P 1.03046(13) -0.35184(11) -0.20726(9)
P5 P 0.68971(14) -0.30399(13) -0.36444(11)
O1 O 0.7608(3) -0.3208(3) -0.1898(2)
O2 O 0.7030(4) -0.4576(3) -0.2254(2)
O3 O 0.7742(4) -0.1918(3) 0.1649(2)
O4 O 0.6485(4) -0.2779(3) 0.2066(2)
C1 C 0.7012(5) -0.3871(4) -0.1825(3)
C2 C 0.6218(5) -0.3745(4) -0.1191(3)
C3 C 0.5546(5) -0.4384(4) -0.0959(3)
H1 H 0.5524 -0.4966 -0.1184
C4 C 0.4910(5) -0.4004(4) -0.0330(3)
H2 H 0.4392 -0.4286 -0.0062
C5 C 0.5194(5) -0.3125(4) -0.0179(4)
H3 H 0.4890 -0.2718 0.0208
C6 C 0.6004(5) -0.2959(4) -0.0699(3)
H4 H 0.6344 -0.2425 -0.0720
C7 C 0.8422(5) -0.3277(4) 0.0483(3)
H5 H 0.8810 -0.2777 0.0412
C8 C 0.8543(5) -0.4111(4) 0.0045(3)
H6 H 0.9027 -0.4258 -0.0368
C9 C 0.7821(5) -0.4670(4) 0.0334(3)
H7 H 0.7736 -0.5260 0.0152
C10 C 0.7239(5) -0.4196(4) 0.0947(3)
H8 H 0.6695 -0.4417 0.1242
C11 C 0.7607(5) -0.3341(4) 0.1045(3)
C12 C 0.7219(5) -0.2638(4) 0.1635(3)
C13 C 0.7504(5) 0.0041(4) 0.3492(3)
C14 C 0.6801(5) 0.0000(4) 0.4107(4)
H9 H 0.6362 -0.0506 0.4107
C15 C 0.6741(5) 0.0670(4) 0.4698(4)
H10 H 0.6242 0.0625 0.5092
C16 C 0.7405(5) 0.1430(4) 0.4738(3)
C17 C 0.7339(5) 0.2132(4) 0.5361(3)
H11 H 0.6834 0.2088 0.5752
C18 C 0.7984(5) 0.2860(4) 0.5403(3)
H12 H 0.7917 0.3320 0.5817
C19 C 0.8770(5) 0.2940(4) 0.4822(3)
C20 C 0.9443(5) 0.3689(4) 0.4864(3)
H13 H 0.9387 0.4147 0.5281
C21 C 1.0197(5) 0.3766(4) 0.4294(4)
H14 H 1.0617 0.4286 0.4320
C22 C 0.9653(5) -0.3097(4) -0.3689(3)
C23 C 1.0308(5) -0.2358(4) -0.3653(3)
H15 H 1.0215 -0.1897 -0.3245
C24 C 0.8881(5) 0.2257(4) 0.4204(3)
C25 C 0.8158(4) 0.1483(3) 0.4153(3)
C26 C 0.8155(5) 0.0788(4) 0.3537(3)
H16 H 0.8625 0.0833 0.3129
C27 C 0.5714(8) 0.0602(5) 0.1994(5)
H17 H 0.4886 0.0738 0.1787
H18 H 0.5916 0.0964 0.2513
C28 C 0.6619(14) 0.0797(11) 0.1467(9)
H21 H 0.6589 0.1392 0.1437
H22 H 0.6411 0.0451 0.0949
H23 H 0.7443 0.0674 0.1675
C29 C 0.4457(9) -0.0499(8) 0.2699(6)
H24 H 0.4663 -0.0083 0.3187
H25 H 0.3702 -0.0324 0.2425
C30 C 0.4224(10) -0.1350(8) 0.2889(7)
H26 H 0.3555 -0.1317 0.3212
H27 H 0.4963 -0.1522 0.3170
H28 H 0.4001 -0.1762 0.2408
C31 C 0.5130(9) -0.1152(7) 0.1177(6)
H29 H 0.5755 -0.1152 0.0818
H30 H 0.5041 -0.1734 0.1259
C32 C 0.3928(11) -0.0928(9) 0.0777(7)
H31 H 0.3715 -0.1333 0.0290
H32 H 0.4004 -0.0363 0.0667
H33 H 0.3286 -0.0944 0.1114
C38 C 1.0106(6) -0.0763(5) 0.4055(4)
H47 H 0.9509 -0.0475 0.4383
H48 H 1.0584 -0.1124 0.4358
C39 C 1.0970(6) -0.0104(5) 0.3882(5)
H49 H 1.1628 -0.0382 0.3613
H50 H 1.1319 0.0259 0.4368
H51 H 1.0519 0.0236 0.3552
C40 C 0.8883(8) -0.2388(5) 0.3529(5)
H52 H 0.8510 -0.2809 0.3079
H53 H 0.9641 -0.2621 0.3745
C41 C 0.8031(12) -0.2246(7) 0.4123(7)
H54 H 0.8390 -0.1824 0.4568
H55 H 0.7876 -0.2773 0.4292
H56 H 0.7260 -0.2047 0.3904
C42 C 1.0400(7) -0.1829(7) 0.2556(6)
H57 H 1.1171 -0.1901 0.2877
H58 H 1.0111 -0.2391 0.2259
C43 C 1.0672(11) -0.1296(8) 0.1995(7)
H59 H 0.9926 -0.1241 0.1654
H60 H 1.1294 -0.1558 0.1683
H61 H 1.0973 -0.0739 0.2279
C44 C 1.0198(6) -0.4602(5) -0.1972(5)
H62 H 0.9496 -0.4677 -0.1687
H63 H 1.0946 -0.4732 -0.1660
C45 C 1.0038(8) -0.5227(5) -0.2755(5)
H64 H 1.0756 -0.5184 -0.3026
H65 H 0.9950 -0.5799 -0.2665
H66 H 0.9308 -0.5096 -0.3072
C46 C 1.1814(5) -0.3381(5) -0.2373(4)
H67 H 1.1934 -0.2786 -0.2408
H68 H 1.1830 -0.3724 -0.2898
C47 C 1.2878(7) -0.3616(7) -0.1848(5)
H69 H 1.2780 -0.4206 -0.1812
H70 H 1.3642 -0.3531 -0.2061
H71 H 1.2901 -0.3262 -0.1331
C48 C 1.0403(7) -0.2955(6) -0.1068(4)
H72 H 1.0963 -0.3245 -0.0739
H73 H 0.9587 -0.2962 -0.0888
C49 C 1.0856(13) -0.2054(9) -0.0976(9)
H74 H 1.0247 -0.1743 -0.1241
H75 H 1.0990 -0.1795 -0.0424
H76 H 1.1625 -0.2041 -0.1202
C50 C 0.6662(6) -0.3858(6) -0.4513(4)
H77 H 0.7348 -0.3826 -0.4823
H78 H 0.5904 -0.3752 -0.4829
C51 C 0.6571(8) -0.4730(6) -0.4353(5)
H79 H 0.5809 -0.4802 -0.4134
H80 H 0.6579 -0.5141 -0.4837
H81 H 0.7265 -0.4815 -0.3983
C52 C 0.5483(6) -0.3066(6) -0.3198(5)
H82 H 0.5553 -0.2621 -0.2725
H83 H 0.5415 -0.3611 -0.3035
C53 C 0.4306(6) -0.2950(7) -0.3697(6)
H84 H 0.4185 -0.3412 -0.4149
H85 H 0.3617 -0.2948 -0.3393
H86 H 0.4359 -0.2415 -0.3871
C54 C 0.6909(9) -0.2081(6) -0.4002(6)
H87 H 0.6201 -0.2102 -0.4403
H88 H 0.7657 -0.2051 -0.4258
C55 C 0.6868(14) -0.1375(10) -0.3470(9)
H91 H 0.7604 -0.1316 -0.3096
H92 H 0.6825 -0.0891 -0.3726
H93 H 0.6145 -0.1401 -0.3200
Pt1A Pt 1.24317(2) 0.092845(14) -0.260231(13)
Pt2A Pt 1.137670(18) 0.320860(14) 0.284180(12)
Fe1A Fe 1.32435(7) 0.37764(5) 0.00522(4)
P1A P 1.4290(2) 0.04997(15) -0.20897(17)
P3A P 1.07282(14) 0.14313(11) -0.32019(10)
P4A P 0.96954(13) 0.35184(11) 0.20726(9)
P5A P 1.31029(14) 0.30399(13) 0.36444(11)
O1A O 1.2392(3) 0.3208(3) 0.1898(2)
O2A O 1.2970(4) 0.4576(3) 0.2254(2)
O3A O 1.2258(4) 0.1918(3) -0.1649(2)
O4A O 1.3515(4) 0.2779(3) -0.2066(2)
C1A C 1.2988(5) 0.3871(4) 0.1825(3)
C2A C 1.3782(5) 0.3745(4) 0.1191(3)
C3A C 1.4454(5) 0.4384(4) 0.0959(3)
H1A H 1.4476 0.4966 0.1184
C4A C 1.5090(5) 0.4004(4) 0.0330(3)
H2A H 1.5608 0.4286 0.0062
C5A C 1.4806(5) 0.3125(4) 0.0179(4)
H3A H 1.5110 0.2718 -0.0208
C6A C 1.3996(5) 0.2959(4) 0.0699(3)
H4A H 1.3656 0.2425 0.0720
C7A C 1.1578(5) 0.3277(4) -0.0483(3)
H5A H 1.1190 0.2777 -0.0412
C8A C 1.1457(5) 0.4111(4) -0.0045(3)
H6A H 1.0973 0.4258 0.0368
C9A C 1.2179(5) 0.4670(4) -0.0334(3)
H7A H 1.2264 0.5260 -0.0152
C10A C 1.2761(5) 0.4196(4) -0.0947(3)
H8A H 1.3305 0.4417 -0.1242
C11A C 1.2393(5) 0.3341(4) -0.1045(3)
C12A C 1.2781(5) 0.2638(4) -0.1635(3)
C13A C 1.2496(5) -0.0041(4) -0.3492(3)
C14A C 1.3199(5) 0.0000(4) -0.4107(4)
H9A H 1.3638 0.0506 -0.4107
C15A C 1.3259(5) -0.0670(4) -0.4698(4)
H10A H 1.3758 -0.0625 -0.5092
C16A C 1.2595(5) -0.1430(4) -0.4738(3)
C17A C 1.2661(5) -0.2132(4) -0.5361(3)
H11A H 1.3166 -0.2088 -0.5752
C18A C 1.2016(5) -0.2860(4) -0.5403(3)
H12A H 1.2083 -0.3320 -0.5817
C19A C 1.1230(5) -0.2940(4) -0.4822(3)
C20A C 1.0557(5) -0.3689(4) -0.4864(3)
H13A H 1.0613 -0.4147 -0.5281
C21A C 0.9803(5) -0.3766(4) -0.4294(4)
H14A H 0.9383 -0.4286 -0.4320
C22A C 1.0347(5) 0.3097(4) 0.3689(3)
C23A C 0.9692(5) 0.2358(4) 0.3653(3)
H15A H 0.9785 0.1897 0.3245
C24A C 1.1119(5) -0.2257(4) -0.4204(3)
C25A C 1.1842(4) -0.1483(3) -0.4153(3)
C26A C 1.1845(5) -0.0788(4) -0.3537(3)
H16A H 1.1375 -0.0833 -0.3129
C27A C 1.4286(8) -0.0602(5) -0.1994(5)
H17A H 1.5114 -0.0738 -0.1787
H18A H 1.4084 -0.0964 -0.2513
C28A C 1.3381(14) -0.0797(11) -0.1467(9)
H21A H 1.3411 -0.1392 -0.1437
H22A H 1.3589 -0.0451 -0.0949
H23A H 1.2557 -0.0674 -0.1675
C29A C 1.5543(9) 0.0499(8) -0.2699(6)
H24A H 1.5337 0.0083 -0.3187
H25A H 1.6298 0.0324 -0.2425
C30A C 1.5776(10) 0.1350(8) -0.2889(7)
H26A H 1.6445 0.1317 -0.3212
H27A H 1.5037 0.1522 -0.3170
H28A H 1.5999 0.1762 -0.2408
C31A C 1.4870(9) 0.1152(7) -0.1177(6)
H29A H 1.4245 0.1152 -0.0818
H30A H 1.4959 0.1734 -0.1259
C32A C 1.6072(11) 0.0928(9) -0.0777(7)
H31A H 1.6285 0.1333 -0.0290
H32A H 1.5996 0.0363 -0.0667
H33A H 1.6714 0.0944 -0.1114
C38A C 0.9894(6) 0.0763(5) -0.4055(4)
H47A H 1.0491 0.0475 -0.4383
H48A H 0.9416 0.1124 -0.4358
C39A C 0.9030(6) 0.0104(5) -0.3882(5)
H49A H 0.8372 0.0382 -0.3613
H50A H 0.8681 -0.0259 -0.4368
H51A H 0.9481 -0.0236 -0.3552
C40A C 1.1117(8) 0.2388(5) -0.3529(5)
H52A H 1.1490 0.2809 -0.3079
H53A H 1.0359 0.2621 -0.3745
C41A C 1.1969(12) 0.2246(7) -0.4123(7)
H54A H 1.1610 0.1824 -0.4568
H55A H 1.2124 0.2773 -0.4292
H56A H 1.2740 0.2047 -0.3904
C42A C 0.9600(7) 0.1829(7) -0.2556(6)
H57A H 0.8829 0.1901 -0.2877
H58A H 0.9889 0.2391 -0.2259
C43A C 0.9328(11) 0.1296(8) -0.1995(7)
H59A H 1.0074 0.1241 -0.1654
H60A H 0.8706 0.1558 -0.1683
H61A H 0.9027 0.0739 -0.2279
C44A C 0.9802(6) 0.4602(5) 0.1972(5)
H62A H 1.0504 0.4677 0.1687
H63A H 0.9054 0.4732 0.1660
C45A C 0.9962(8) 0.5227(5) 0.2755(5)
H64A H 0.9244 0.5184 0.3026
H65A H 1.0050 0.5799 0.2665
H66A H 1.0692 0.5096 0.3072
C46A C 0.8186(5) 0.3381(5) 0.2373(4)
H67A H 0.8066 0.2786 0.2408
H68A H 0.8170 0.3724 0.2898
C47A C 0.7122(7) 0.3616(7) 0.1848(5)
H69A H 0.7220 0.4206 0.1812
H70A H 0.6358 0.3531 0.2061
H71A H 0.7099 0.3262 0.1331
C48A C 0.9597(7) 0.2955(6) 0.1068(4)
H72A H 0.9037 0.3245 0.0739
H73A H 1.0413 0.2962 0.0888
C49A C 0.9144(13) 0.2054(9) 0.0976(9)
H74A H 0.9753 0.1743 0.1241
H75A H 0.9010 0.1795 0.0424
H76A H 0.8375 0.2041 0.1202
C50A C 1.3338(6) 0.3858(6) 0.4513(4)
H77A H 1.2652 0.3826 0.4823
H78A H 1.4096 0.3752 0.4829
C51A C 1.3429(8) 0.4730(6) 0.4353(5)
H79A H 1.4191 0.4802 0.4134
H80A H 1.3421 0.5141 0.4837
H81A H 1.2735 0.4815 0.3983
C52A C 1.4517(6) 0.3066(6) 0.3198(5)
H82A H 1.4447 0.2621 0.2725
H83A H 1.4585 0.3611 0.3035
C53A C 1.5694(6) 0.2950(7) 0.3697(6)
H84A H 1.5815 0.3412 0.4149
H85A H 1.6383 0.2948 0.3393
H86A H 1.5641 0.2415 0.3871
C54A C 1.3091(9) 0.2081(6) 0.4002(6)
H87A H 1.3799 0.2102 0.4403
H88A H 1.2343 0.2051 0.4258
C55A C 1.3132(14) 0.1375(10) 0.3470(9)
H91A H 1.2396 0.1316 0.3096
H92A H 1.3175 0.0891 0.3726
H93A H 1.3855 0.1401 0.3200
C57 C 0.5406(6) 0.5866(4) 0.2945(4)
H97 H 0.4797 0.5450 0.2627
H98 H 0.5766 0.6182 0.2596
Cl1 Cl 0.6568(2) 0.53367(16) 0.34139(13)
Cl2 Cl 0.46759(17) 0.65673(13) 0.36350(10)
C58 C 0.2375(6) 0.6340(5) 0.1863(4)
H99 H 0.2508 0.5780 0.1993
H100 H 0.2257 0.6739 0.2345
Cl3 Cl 0.36781(18) 0.66653(14) 0.14836(13)
Cl4 Cl 0.10567(16) 0.62883(13) 0.11954(11)
C59 C 0.7931(16) -0.1149(11) -0.1177(8)
H101 H 0.8114 -0.1735 -0.1403
H102 H 0.7056 -0.1073 -0.1330
Cl5 Cl 0.8189(7) -0.1007(5) -0.0129(4)
Cl6 Cl 0.8760(8) -0.0499(6) -0.1562(5)
P2? P 0.6144(7) -0.0481(4) 0.1787(4)
H19? H 0.5375 0.0688 0.2497
H20? H 0.6483 0.0946 0.2084
C33? C 0.492(4) 0.096(3) 0.151(3)
H34? H 0.4842 0.1557 0.1731
H35? H 0.4112 0.0674 0.1436
H36? H 0.5224 0.0908 0.1002
C34? C 0.467(2) -0.1027(16) 0.1794(14)
H37? H 0.4034 -0.0779 0.1473
H38? H 0.4725 -0.1622 0.1541
C35? C 0.426(3) -0.100(2) 0.2542(19)
H39? H 0.3476 -0.1308 0.2478
H40? H 0.4171 -0.0416 0.2794
H41? H 0.4865 -0.1262 0.2862
C36? C 0.640(2) -0.0716(17) 0.0783(15)
H42? H 0.6389 -0.1334 0.0611
H43? H 0.5715 -0.0503 0.0476
C37? C 0.762(2) -0.035(2) 0.059(2)
H44? H 0.7674 -0.0514 0.0037
H45? H 0.8310 -0.0565 0.0883
H46? H 0.7632 0.0265 0.0742
H89? H 1.2499 0.2193 0.4387
H90? H 1.2654 0.1683 0.3557
C56? C 1.393(3) 0.156(2) 0.4335(18)
H94? H 1.3507 0.1030 0.4358
H95? H 1.4253 0.1843 0.4859
H96? H 1.4599 0.1438 0.4017
loop_
_geom_bond_atom_site_label_1
_geom_bond_atom_site_label_2
_geom_bond_site_symmetry_1
_geom_bond_site_symmetry_2
Pt1 P1 1_555 1_555
Pt2 P4 1_555 1_555
Fe1 C2 1_555 1_555
P1 C27 1_555 1_555
P3 Pt1 1_555 1_555
P4 C44 1_555 1_555
P5 Pt2 1_555 1_555
O1 Pt2 1_555 1_555
O2 C1 1_555 1_555
O3 Pt1 1_555 1_555
O4 C12 1_555 1_555
C1 O1 1_555 1_555
C2 C1 1_555 1_555
C3 Fe1 1_555 1_555
H1 C3 1_555 1_555
C4 Fe1 1_555 1_555
H2 C4 1_555 1_555
C5 Fe1 1_555 1_555
H3 C5 1_555 1_555
C6 Fe1 1_555 1_555
H4 C6 1_555 1_555
C7 Fe1 1_555 1_555
H5 C7 1_555 1_555
C8 Fe1 1_555 1_555
H6 C8 1_555 1_555
C9 Fe1 1_555 1_555
H7 C9 1_555 1_555
C10 Fe1 1_555 1_555
H8 C10 1_555 1_555
C11 Fe1 1_555 1_555
C12 O3 1_555 1_555
C13 Pt1 1_555 1_555
C14 C13 1_555 1_555
H9 C14 1_555 1_555
C15 C14 1_555 1_555
H10 C15 1_555 1_555
C16 C15 1_555 1_555
C17 C16 1_555 1_555
H11 C17 1_555 1_555
C18 C17 1_555 1_555
H12 C18 1_555 1_555
C19 C18 1_555 1_555
C20 C19 1_555 1_555
H13 C20 1_555 1_555
C21 C20 1_555 1_555
H14 C21 1_555 1_555
C22 Pt2 1_555 1_555
C23 C22 1_555 1_555
H15 C23 1_555 1_555
C24 C19 1_555 1_555
C25 C16 1_555 1_555
C26 C13 1_555 1_555
H16 C26 1_555 1_555
C27 H17 1_555 1_555
H18 C27 1_555 1_555
C28 C27 1_555 1_555
H21 C28 1_555 1_555
H22 C28 1_555 1_555
H23 C28 1_555 1_555
C29 P1 1_555 1_555
H24 C29 1_555 1_555
H25 C29 1_555 1_555
C30 C29 1_555 1_555
H26 C30 1_555 1_555
H27 C30 1_555 1_555
H28 C30 1_555 1_555
C31 P1 1_555 1_555
H29 C31 1_555 1_555
H30 C31 1_555 1_555
C32 C31 1_555 1_555
H31 C32 1_555 1_555
H32 C32 1_555 1_555
H33 C32 1_555 1_555
C38 P3 1_555 1_555
H47 C38 1_555 1_555
H48 C38 1_555 1_555
C39 C38 1_555 1_555
H49 C39 1_555 1_555
H50 C39 1_555 1_555
H51 C39 1_555 1_555
C40 P3 1_555 1_555
H52 C40 1_555 1_555
H53 C40 1_555 1_555
C41 C40 1_555 1_555
H54 C41 1_555 1_555
H55 C41 1_555 1_555
H56 C41 1_555 1_555
C42 P3 1_555 1_555
H57 C42 1_555 1_555
H58 C42 1_555 1_555
C43 C42 1_555 1_555
H59 C43 1_555 1_555
H60 C43 1_555 1_555
H61 C43 1_555 1_555
C44 H62 1_555 1_555
H63 C44 1_555 1_555
C45 C44 1_555 1_555
H64 C45 1_555 1_555
H65 C45 1_555 1_555
H66 C45 1_555 1_555
C46 P4 1_555 1_555
H67 C46 1_555 1_555
H68 C46 1_555 1_555
C47 C46 1_555 1_555
H69 C47 1_555 1_555
H70 C47 1_555 1_555
H71 C47 1_555 1_555
C48 P4 1_555 1_555
H72 C48 1_555 1_555
H73 C48 1_555 1_555
C49 C48 1_555 1_555
H74 C49 1_555 1_555
H75 C49 1_555 1_555
H76 C49 1_555 1_555
C50 P5 1_555 1_555
H77 C50 1_555 1_555
H78 C50 1_555 1_555
C51 C50 1_555 1_555
H79 C51 1_555 1_555
H80 C51 1_555 1_555
H81 C51 1_555 1_555
C52 P5 1_555 1_555
H82 C52 1_555 1_555
H83 C52 1_555 1_555
C53 C52 1_555 1_555
H84 C53 1_555 1_555
H85 C53 1_555 1_555
H86 C53 1_555 1_555
C54 P5 1_555 1_555
H87 C54 1_555 1_555
H88 C54 1_555 1_555
C55 C54 1_555 1_555
H91 C55 1_555 1_555
H92 C55 1_555 1_555
H93 C55 1_555 1_555
C57 H97 1_555 1_555
H98 C57 1_555 1_555
Cl1 C57 1_555 1_555
Cl2 C57 1_555 1_555
C58 H99 1_555 1_555
H100 C58 1_555 1_555
Cl3 C58 1_555 1_555
Cl4 C58 1_555 1_555
C59 H101 1_555 1_555
H102 C59 1_555 1_555
Cl5 C59 1_555 1_555
Cl6 C59 1_555 1_555
Pt1A P1A 1_555 1_555
Pt2A P4A 1_555 1_555
Fe1A C2A 1_555 1_555
P1A C27A 1_555 1_555
P3A Pt1A 1_555 1_555
P4A C44A 1_555 1_555
P5A Pt2A 1_555 1_555
O1A Pt2A 1_555 1_555
O2A C1A 1_555 1_555
O3A Pt1A 1_555 1_555
O4A C12A 1_555 1_555
C1A O1A 1_555 1_555
C2A C1A 1_555 1_555
C3A Fe1A 1_555 1_555
H1A C3A 1_555 1_555
C4A Fe1A 1_555 1_555
H2A C4A 1_555 1_555
C5A Fe1A 1_555 1_555
H3A C5A 1_555 1_555
C6A Fe1A 1_555 1_555
H4A C6A 1_555 1_555
C7A Fe1A 1_555 1_555
H5A C7A 1_555 1_555
C8A Fe1A 1_555 1_555
H6A C8A 1_555 1_555
C9A Fe1A 1_555 1_555
H7A C9A 1_555 1_555
C10A Fe1A 1_555 1_555
H8A C10A 1_555 1_555
C11A Fe1A 1_555 1_555
C12A O3A 1_555 1_555
C13A Pt1A 1_555 1_555
C14A C13A 1_555 1_555
H9A C14A 1_555 1_555
C15A C14A 1_555 1_555
H10A C15A 1_555 1_555
C16A C15A 1_555 1_555
C17A C16A 1_555 1_555
H11A C17A 1_555 1_555
C18A C17A 1_555 1_555
H12A C18A 1_555 1_555
C19A C18A 1_555 1_555
C20A C19A 1_555 1_555
H13A C20A 1_555 1_555
C21A C22 1_555 1_555
H14A C21A 1_555 1_555
C22A C21 1_555 1_555
C23A C24 1_555 1_555
H15A C23A 1_555 1_555
C24A C23 1_555 1_555
C25A C16A 1_555 1_555
C26A C13A 1_555 1_555
H16A C26A 1_555 1_555
C27A H17A 1_555 1_555
H18A C27A 1_555 1_555
C28A C27A 1_555 1_555
H21A C28A 1_555 1_555
H22A C28A 1_555 1_555
H23A C28A 1_555 1_555
C29A P1A 1_555 1_555
H24A C29A 1_555 1_555
H25A C29A 1_555 1_555
C30A C29A 1_555 1_555
H26A C30A 1_555 1_555
H27A C30A 1_555 1_555
H28A C30A 1_555 1_555
C31A P1A 1_555 1_555
H29A C31A 1_555 1_555
H30A C31A 1_555 1_555
C32A C31A 1_555 1_555
H31A C32A 1_555 1_555
H32A C32A 1_555 1_555
H33A C32A 1_555 1_555
C38A P3A 1_555 1_555
H47A C38A 1_555 1_555
H48A C38A 1_555 1_555
C39A C38A 1_555 1_555
H49A C39A 1_555 1_555
H50A C39A 1_555 1_555
H51A C39A 1_555 1_555
C40A P3A 1_555 1_555
H52A C40A 1_555 1_555
H53A C40A 1_555 1_555
C41A C40A 1_555 1_555
H54A C41A 1_555 1_555
H55A C41A 1_555 1_555
H56A C41A 1_555 1_555
C42A P3A 1_555 1_555
H57A C42A 1_555 1_555
H58A C42A 1_555 1_555
C43A C42A 1_555 1_555
H59A C43A 1_555 1_555
H60A C43A 1_555 1_555
H61A C43A 1_555 1_555
C44A H62A 1_555 1_555
H63A C44A 1_555 1_555
C45A C44A 1_555 1_555
H64A C45A 1_555 1_555
H65A C45A 1_555 1_555
H66A C45A 1_555 1_555
C46A P4A 1_555 1_555
H67A C46A 1_555 1_555
H68A C46A 1_555 1_555
C47A C46A 1_555 1_555
H69A C47A 1_555 1_555
H70A C47A 1_555 1_555
H71A C47A 1_555 1_555
C48A P4A 1_555 1_555
H72A C48A 1_555 1_555
H73A C48A 1_555 1_555
C49A C48A 1_555 1_555
H74A C49A 1_555 1_555
H75A C49A 1_555 1_555
H76A C49A 1_555 1_555
C50A P5A 1_555 1_555
H77A C50A 1_555 1_555
H78A C50A 1_555 1_555
C51A C50A 1_555 1_555
H79A C51A 1_555 1_555
H80A C51A 1_555 1_555
H81A C51A 1_555 1_555
C52A P5A 1_555 1_555
H82A C52A 1_555 1_555
H83A C52A 1_555 1_555
C53A C52A 1_555 1_555
H84A C53A 1_555 1_555
H85A C53A 1_555 1_555
H86A C53A 1_555 1_555
C54A P5A 1_555 1_555
H87A C54A 1_555 1_555
H88A C54A 1_555 1_555
C55A C54A 1_555 1_555
H91A C55A 1_555 1_555
H92A C55A 1_555 1_555
H93A C55A 1_555 1_555
C2 C3 1_555 1_555
C2 C6 1_555 1_555
C3 C4 1_555 1_555
C4 C5 1_555 1_555
C5 C6 1_555 1_555
C7 C8 1_555 1_555
C7 C11 1_555 1_555
C8 C9 1_555 1_555
C9 C10 1_555 1_555
C10 C11 1_555 1_555
C11 C12 1_555 1_555
C24 C25 1_555 1_555
C25 C26 1_555 1_555
Pt2A C22A 1_555 1_555
C2A C3A 1_555 1_555
C2A C6A 1_555 1_555
C3A C4A 1_555 1_555
C4A C5A 1_555 1_555
C5A C6A 1_555 1_555
C7A C8A 1_555 1_555
C7A C11A 1_555 1_555
C8A C9A 1_555 1_555
C9A C10A 1_555 1_555
C10A C11A 1_555 1_555
C11A C12A 1_555 1_555
C19A C24A 1_555 1_555
C20A C21A 1_555 1_555
C22A C23A 1_555 1_555
C24A C25A 1_555 1_555
C25A C26A 1_555 1_555

#END
