
#######################################################################
#
#                 Cambridge Crystallographic Data Centre
#                                CCDC 
#
#######################################################################
#
# If this CIF has been generated from an entry in the Cambridge 
# Structural Database, then it will include bibliographic, chemical, 
# crystal, experimental, refinement or atomic coordinate data resulting 
# from the CCDC's data processing and validation procedures.
#
#######################################################################

data_LUNLUB
_chemical_formula_moiety         'C54 H54 Ag2 N14 2+,2(C2 F3 O2 1-),2(H2 O1)'
_chemical_name_systematic        
"bis(\m~2~-tris(1-benzimidazolylethyl)amine-N,N',N'')-di-silver(i) bis(trifluoroacetate) dihydrate"
_symmetry_cell_setting           triclinic
_symmetry_space_group_name_H-M   'P -1'
_symmetry_Int_Tables_number      2
_space_group_name_Hall           '-P 1'
loop_
_symmetry_equiv_pos_site_id
_symmetry_equiv_pos_as_xyz
1 x,y,z
2 -x,-y,-z
_cell_length_a                   9.3390(12)
_cell_length_b                   10.2168(13)
_cell_length_c                   16.382(2)
_cell_angle_alpha                75.721(3)
_cell_angle_beta                 87.857(3)
_cell_angle_gamma                71.738(3)
_cell_volume                     1437.15
_exptl_crystal_colour            colorless
_exptl_crystal_description       block
_cell_formula_units_Z            1
loop_
_atom_site_label
_atom_site_type_symbol
_atom_site_fract_x
_atom_site_fract_y
_atom_site_fract_z
Ag1 Ag 0.60496(5) 0.80769(5) 0.53649(2)
C1 C 0.4666(5) 0.7268(5) 0.7209(3)
H1 H 0.5579 0.6556 0.7384
C2 C 0.2811(5) 0.8818(5) 0.6436(3)
C3 C 0.1802(6) 0.9717(6) 0.5779(3)
H2 H 0.2001 0.9697 0.5221
C4 C 0.0499(6) 1.0637(6) 0.5987(4)
H3 H -0.0194 1.1251 0.5560
C5 C 0.0187(6) 1.0674(6) 0.6824(4)
H4 H -0.0705 1.1312 0.6941
C6 C 0.1171(5) 0.9787(5) 0.7477(3)
H5 H 0.0963 0.9805 0.8034
C7 C 0.2488(5) 0.8865(4) 0.7270(3)
C8 C 0.3968(6) 0.7528(5) 0.8662(3)
H6 H 0.3135 0.7256 0.8944
H7 H 0.4878 0.6724 0.8825
C9 C 0.4139(5) 0.8773(5) 0.8953(3)
H8 H 0.4338 0.8485 0.9559
H9 H 0.3193 0.9545 0.8837
C10 C 0.4877(6) 0.9264(5) 0.1334(3)
H10 H 0.5146 0.9259 0.0757
H11 H 0.3932 0.9051 0.1419
C11 C 0.6079(6) 0.8110(5) 0.1919(3)
H12 H 0.6304 0.7239 0.1733
H13 H 0.6993 0.8377 0.1888
C12 C 0.6174(5) 0.8194(4) 0.3434(3)
H14 H 0.6910 0.8645 0.3372
C13 C 0.4579(5) 0.7169(4) 0.3133(3)
C14 C 0.3745(5) 0.6532(5) 0.2774(3)
H15 H 0.3797 0.6518 0.2208
C15 C 0.2822(6) 0.5913(5) 0.3316(3)
H16 H 0.2227 0.5482 0.3105
C16 C 0.2766(6) 0.5923(5) 0.4168(3)
H17 H 0.2139 0.5493 0.4509
C17 C 0.3611(5) 0.6552(5) 0.4517(3)
H18 H 0.3570 0.6553 0.5085
C18 C 0.4528(5) 0.7181(4) 0.3984(3)
C19 C 0.6834(5) 0.8326(5) 0.8913(3)
H19 H 0.6964 0.8426 0.9477
H20 H 0.6845 0.7356 0.8962
C20 C 0.8150(6) 0.8572(6) 0.8403(3)
H21 H 0.9079 0.8026 0.8735
H22 H 0.8070 0.9570 0.8296
C21 C 0.7196(5) 0.8727(6) 0.6951(3)
H23 H 0.6283 0.9428 0.6966
C22 C 0.9449(5) 0.7200(5) 0.7331(3)
C23 C 1.0849(6) 0.6348(5) 0.7720(3)
H24 H 1.1110 0.6329 0.8266
C24 C 1.1816(6) 0.5541(5) 0.7255(4)
H25 H 1.2772 0.4979 0.7484
C25 C 1.1410(6) 0.5539(5) 0.6446(4)
H26 H 1.2099 0.4970 0.6152
C26 C 1.0019(6) 0.6354(5) 0.6070(3)
H27 H 0.9752 0.6334 0.5533
C27 C 0.9026(5) 0.7212(5) 0.6523(3)
N1 N 0.3694(4) 0.7854(4) 0.7753(2)
N2 N 0.4200(5) 0.7802(4) 0.6409(3)
N3 N 0.5639(4) 0.7840(4) 0.2795(2)
N4 N 0.5552(4) 0.7838(4) 0.4157(2)
N5 N 0.8241(4) 0.8179(4) 0.7594(2)
N6 N 0.7595(4) 0.8173(5) 0.6300(2)
N7 N 0.5355(4) 0.9304(4) 0.8549(2)
C10A C 0.5123(6) 1.0736(5) 0.8666(3)
H10A H 0.4854 1.0741 0.9243
H11A H 0.6068 1.0949 0.8581
C11A C 0.3921(6) 1.1890(5) 0.8081(3)
H12A H 0.3696 1.2761 0.8267
H13A H 0.3007 1.1623 0.8112
N3A N 0.4361(4) 1.2160(4) 0.7205(2)
C12A C 0.3826(5) 1.1806(4) 0.6566(3)
H14A H 0.3090 1.1355 0.6628
N4A N 0.4448(4) 1.2162(4) 0.5843(2)
Ag1A Ag 0.39504(5) 1.19231(5) 0.46351(2)
N2A N 0.5800(5) 1.2198(4) 0.3591(3)
C1A C 0.5334(5) 1.2732(5) 0.2791(3)
H1A H 0.4421 1.3444 0.2616
N1A N 0.6306(4) 1.2146(4) 0.2247(2)
C7A C 0.7512(5) 1.1135(4) 0.2730(3)
C2A C 0.7189(5) 1.1182(5) 0.3564(3)
C3A C 0.8198(6) 1.0283(6) 0.4221(3)
H2A H 0.7999 1.0303 0.4779
C4A C 0.9501(6) 0.9363(6) 0.4013(4)
H3A H 1.0194 0.8749 0.4440
C5A C 0.9813(6) 0.9326(6) 0.3176(4)
H4A H 1.0705 0.8688 0.3059
C6A C 0.8829(5) 1.0213(5) 0.2523(3)
H5A H 0.9037 1.0195 0.1966
C8A C 0.6032(6) 1.2472(5) 0.1338(3)
H6A H 0.6865 1.2744 0.1056
H7A H 0.5122 1.3276 0.1175
C9A C 0.5861(5) 1.1227(5) 0.1047(3)
H8A H 0.5662 1.1515 0.0441
H9A H 0.6807 1.0455 0.1163
N7A N 0.4645(4) 1.0696(4) 0.1451(2)
C19A C 0.3166(5) 1.1674(5) 0.1087(3)
H19A H 0.3036 1.1574 0.0523
H20A H 0.3155 1.2644 0.1038
C20A C 0.1850(6) 1.1428(6) 0.1597(3)
H21A H 0.0921 1.1974 0.1265
H22A H 0.1930 1.0430 0.1704
N5A N 0.1759(4) 1.1821(4) 0.2406(2)
C21A C 0.2804(5) 1.1273(6) 0.3049(3)
H23A H 0.3717 1.0572 0.3034
N6A N 0.2405(4) 1.1827(5) 0.3700(2)
C27A C 0.0974(5) 1.2788(5) 0.3477(3)
C22A C 0.0551(5) 1.2800(5) 0.2669(3)
C23A C -0.0849(6) 1.3652(5) 0.2280(3)
H24A H -0.1110 1.3671 0.1734
C24A C -0.1816(6) 1.4459(5) 0.2745(4)
H25A H -0.2772 1.5021 0.2516
C25A C -0.1410(6) 1.4461(5) 0.3554(4)
H26A H -0.2099 1.5030 0.3848
C26A C -0.0019(6) 1.3646(5) 0.3930(3)
H27A H 0.0248 1.3666 0.4467
C18A C 0.5472(5) 1.2819(4) 0.6016(3)
C13A C 0.5421(5) 1.2831(4) 0.6867(3)
C14A C 0.6255(5) 1.3468(5) 0.7226(3)
H15A H 0.6203 1.3482 0.7792
C15A C 0.7178(6) 1.4087(5) 0.6684(3)
H16A H 0.7773 1.4518 0.6895
C16A C 0.7234(6) 1.4077(5) 0.5832(3)
H17A H 0.7861 1.4507 0.5491
C17A C 0.6389(5) 1.3448(5) 0.5483(3)
H18A H 0.6430 1.3447 0.4915
C28 C 0.1939(8) 0.6090(8) 0.0604(5)
C29 C 0.0673(11) 0.7314(12) 0.0822(6)
O1 O 0.2904(7) 0.5477(6) 0.1111(5)
O3 O 0.1770(7) 0.5948(7) -0.0105(4)
F1 F -0.0479(12) 0.7998(14) 0.0401(9)
F2 F 0.0198(10) 0.6835(13) 0.1652(6)
F3 F 0.1298(11) 0.8296(8) 0.1001(8)
O2 O 0.4177(6) 0.3985(4) -0.0760(3)
H28 H 0.5242 0.3576 -0.0594
H29 H 0.3729 0.4993 -0.0794
loop_
_geom_bond_atom_site_label_1
_geom_bond_atom_site_label_2
_geom_bond_site_symmetry_1
_geom_bond_site_symmetry_2
Ag1 N2 1_555 1_555
C1 H1 1_555 1_555
C2 C3 1_555 1_555
C3 H2 1_555 1_555
C4 C3 1_555 1_555
H3 C4 1_555 1_555
C5 C4 1_555 1_555
H4 C5 1_555 1_555
C6 C5 1_555 1_555
H5 C6 1_555 1_555
C7 C2 1_555 1_555
C8 H6 1_555 1_555
H7 C8 1_555 1_555
C9 C8 1_555 1_555
H8 C9 1_555 1_555
H9 C9 1_555 1_555
C10 H10 1_555 1_555
H11 C10 1_555 1_555
C11 C10 1_555 1_555
H12 C11 1_555 1_555
H13 C11 1_555 1_555
C12 H14 1_555 1_555
C13 C14 1_555 1_555
C14 H15 1_555 1_555
C15 C14 1_555 1_555
H16 C15 1_555 1_555
C16 C15 1_555 1_555
H17 C16 1_555 1_555
C17 C16 1_555 1_555
H18 C17 1_555 1_555
C18 C13 1_555 1_555
C19 H19 1_555 1_555
H20 C19 1_555 1_555
C20 C19 1_555 1_555
H21 C20 1_555 1_555
H22 C20 1_555 1_555
C21 H23 1_555 1_555
C22 C23 1_555 1_555
C23 H24 1_555 1_555
C24 C23 1_555 1_555
H25 C24 1_555 1_555
C25 C24 1_555 1_555
H26 C25 1_555 1_555
C26 C25 1_555 1_555
H27 C26 1_555 1_555
C27 C22 1_555 1_555
C28 C29 1_555 1_555
C29 F1 1_555 1_555
N1 C1 1_555 1_555
N2 C1 1_555 1_555
N3 C11 1_555 1_555
N4 Ag1 1_555 1_555
N5 C20 1_555 1_555
N6 Ag1 1_555 1_555
N7 C9 1_555 1_555
O1 C28 1_555 1_555
O2 H28 1_555 1_555
H29 O2 1_555 1_555
O3 C28 1_555 1_555
F2 C29 1_555 1_555
F3 C29 1_555 1_555
C10A N7 1_555 1_555
H10A C10A 1_555 1_555
H11A C10A 1_555 1_555
C11A C10A 1_555 1_555
H12A C11A 1_555 1_555
H13A C11A 1_555 1_555
N3A C11A 1_555 1_555
C12A N3A 1_555 1_555
H14A C12A 1_555 1_555
N4A C12A 1_555 1_555
Ag1A N4A 1_555 1_555
N2A Ag1A 1_555 1_555
C1A N2A 1_555 1_555
H1A C1A 1_555 1_555
N1A C1A 1_555 1_555
C7A N1A 1_555 1_555
C2A N2A 1_555 1_555
C3A C2A 1_555 1_555
H2A C3A 1_555 1_555
C4A C3A 1_555 1_555
H3A C4A 1_555 1_555
C5A C4A 1_555 1_555
H4A C5A 1_555 1_555
C6A C7A 1_555 1_555
H5A C6A 1_555 1_555
C8A N1A 1_555 1_555
H6A C8A 1_555 1_555
H7A C8A 1_555 1_555
C9A C8A 1_555 1_555
H8A C9A 1_555 1_555
H9A C9A 1_555 1_555
N7A C10 1_555 1_555
C19A N7A 1_555 1_555
H19A C19A 1_555 1_555
H20A C19A 1_555 1_555
C20A C19A 1_555 1_555
H21A C20A 1_555 1_555
H22A C20A 1_555 1_555
N5A C20A 1_555 1_555
C21A N5A 1_555 1_555
H23A C21A 1_555 1_555
N6A Ag1A 1_555 1_555
C27A N6A 1_555 1_555
C22A N5A 1_555 1_555
C23A C22A 1_555 1_555
H24A C23A 1_555 1_555
C24A C23A 1_555 1_555
H25A C24A 1_555 1_555
C25A C24A 1_555 1_555
H26A C25A 1_555 1_555
C26A C27A 1_555 1_555
H27A C26A 1_555 1_555
C18A N4A 1_555 1_555
C13A N3A 1_555 1_555
C14A C13A 1_555 1_555
H15A C14A 1_555 1_555
C15A C14A 1_555 1_555
H16A C15A 1_555 1_555
C16A C15A 1_555 1_555
H17A C16A 1_555 1_555
C17A C18A 1_555 1_555
H18A C17A 1_555 1_555
C2 N2 1_555 1_555
C6 C7 1_555 1_555
C7 N1 1_555 1_555
C8 N1 1_555 1_555
C12 N3 1_555 1_555
C12 N4 1_555 1_555
C13 N3 1_555 1_555
C17 C18 1_555 1_555
C18 N4 1_555 1_555
C19 N7 1_555 1_555
C21 N6 1_555 1_555
C21 N5 1_555 1_555
C22 N5 1_555 1_555
C26 C27 1_555 1_555
C27 N6 1_555 1_555
C7A C2A 1_555 1_555
C5A C6A 1_555 1_555
C9A N7A 1_555 1_555
C21A N6A 1_555 1_555
C27A C22A 1_555 1_555
C25A C26A 1_555 1_555
C18A C13A 1_555 1_555
C16A C17A 1_555 1_555

#END
