
#######################################################################
#
#                 Cambridge Crystallographic Data Centre
#                                CCDC 
#
#######################################################################
#
# If this CIF has been generated from an entry in the Cambridge 
# Structural Database, then it will include bibliographic, chemical, 
# crystal, experimental, refinement or atomic coordinate data resulting 
# from the CCDC's data processing and validation procedures.
#
#######################################################################

data_MISMUW
_chemical_formula_moiety         
'C88 H60 Cd12 Cl12 N24 O12 8-,8(C8 H20 N1 1+),4(C3 H7 N1 O1)'
_chemical_name_systematic        
"octakis(Tetraethylammonium) tetrakis((\m~6~-N,N',N''-tris(2-hydroxybenzylideneamino)guanidine)-tris(chloro-cadmium)) clathrate dimethylformamide solvate"
_symmetry_cell_setting           cubic
_symmetry_space_group_name_H-M   'P n -3'
_symmetry_Int_Tables_number      201
_space_group_name_Hall           '-P 2ab 2bc 3'
loop_
_symmetry_equiv_pos_site_id
_symmetry_equiv_pos_as_xyz
1 x,y,z
2 z,x,y
3 y,z,x
4 1/2+x,1/2+y,-z
5 1/2+x,-y,1/2+z
6 -x,1/2+y,1/2+z
7 -z,1/2+x,1/2+y
8 1/2+z,1/2+x,-y
9 1/2+z,-x,1/2+y
10 1/2+y,-z,1/2+x
11 -y,1/2+z,1/2+x
12 1/2+y,1/2+z,-x
13 -x,-y,-z
14 -z,-x,-y
15 -y,-z,-x
16 1/2-x,1/2-y,z
17 1/2-x,y,1/2-z
18 x,1/2-y,1/2-z
19 z,1/2-x,1/2-y
20 1/2-z,1/2-x,y
21 1/2-z,x,1/2-y
22 1/2-y,z,1/2-x
23 y,1/2-z,1/2-x
24 1/2-y,1/2-z,x
_cell_length_a                   21.257(3)
_cell_length_b                   21.257(3)
_cell_length_c                   21.257(3)
_cell_angle_alpha                90
_cell_angle_beta                 90
_cell_angle_gamma                90
_cell_volume                     9605.19
_exptl_crystal_colour            yellow
_exptl_crystal_description       rhombododecahedron
_cell_formula_units_Z            2
loop_
_atom_site_label
_atom_site_type_symbol
_atom_site_fract_x
_atom_site_fract_y
_atom_site_fract_z
N4 N 0.0228(14) 0.7500 0.2500
C11 C -0.0216(11) 0.7495(11) 0.1903(12)
C12 C 0.0140(11) 0.7483(10) 0.1305(11)
C13 C 0.0580(16) 0.8149(17) 0.2473(16)
C14 C 0.0225(16) 0.8672(16) 0.2392(16)
C11Q C -0.0216(11) 0.7505(11) 0.3097(12)
C12Q C 0.0140(11) 0.7517(10) 0.3695(11)
C13Q C 0.0580(16) 0.6851(17) 0.2527(16)
C14Q C 0.0225(16) 0.6328(16) 0.2608(16)
N6 N 0.2500 0.7500 0.2500
C18 C 0.273(3) 0.784(3) 0.198(3)
C19 C 0.2500 0.683(4) 0.2500
O2 O 0.304(2) 0.768(2) 0.151(2)
C18O C 0.227(3) 0.716(3) 0.198(3)
C18P C 0.227(3) 0.784(3) 0.302(3)
C18Q C 0.273(3) 0.716(3) 0.302(3)
O2O O 0.196(2) 0.732(2) 0.151(2)
O2Q O 0.304(2) 0.732(2) 0.349(2)
C19O C 0.2500 0.817(4) 0.2500
O2P O 0.196(2) 0.768(2) 0.349(2)
Cd1 Cd 0.19637(4) 0.48984(4) 0.31617(4)
Cl1 Cl 0.16034(18) 0.58863(18) 0.3638(2)
C1 C 0.1317(6) 0.3683(6) 0.3683(6)
N1 N 0.1810(5) 0.4072(5) 0.3798(5)
N2 N 0.1133(5) 0.4285(5) 0.2812(5)
C2 C 0.0790(6) 0.4411(7) 0.2333(6)
H1 H 0.0424 0.4176 0.2278
C3 C 0.0931(7) 0.4898(7) 0.1866(7)
C4 C 0.1540(6) 0.5174(6) 0.1788(7)
C5 C 0.1602(7) 0.5658(7) 0.1371(6)
H2 H 0.1996 0.5842 0.1321
C6 C 0.1100(6) 0.5890(6) 0.1018(6)
H3 H 0.1155 0.6236 0.0755
C7 C 0.0527(7) 0.5604(7) 0.1062(7)
H4 H 0.0195 0.5741 0.0813
C8 C 0.0439(7) 0.5100(6) 0.1485(6)
H5 H 0.0050 0.4903 0.1510
O1 O 0.2026(4) 0.4959(4) 0.2105(4)
N1U N 0.0928(5) 0.3798(5) 0.3190(5)
Cd1U Cd 0.01016(4) 0.31617(4) 0.30363(4)
Cl1U Cl -0.08863(18) 0.3638(2) 0.33966(18)
N2U N 0.0715(5) 0.2812(5) 0.3867(5)
N1S N 0.1202(5) 0.3190(5) 0.4072(5)
Cd1S Cd 0.18383(4) 0.30363(4) 0.48984(4)
Cl1S Cl 0.1362(2) 0.33966(18) 0.58863(18)
N2S N 0.2188(5) 0.3867(5) 0.4285(5)
C2S C 0.2667(6) 0.4210(6) 0.4411(7)
H1S H 0.2722 0.4576 0.4176
C3S C 0.3134(7) 0.4069(7) 0.4898(7)
C4S C 0.3212(7) 0.3460(6) 0.5174(6)
C5S C 0.3629(6) 0.3398(7) 0.5658(7)
H2S H 0.3679 0.3004 0.5842
C6S C 0.3982(6) 0.3900(6) 0.5890(6)
H3S H 0.4245 0.3845 0.6236
C7S C 0.3938(7) 0.4473(7) 0.5604(7)
H4S H 0.4187 0.4805 0.5741
C8S C 0.3515(6) 0.4561(7) 0.5100(6)
H5S H 0.3490 0.4950 0.4903
O1S O 0.2895(4) 0.2974(4) 0.4959(4)
O1A O 0.2105(4) 0.2026(4) 0.4959(4)
Cd1A Cd 0.31617(4) 0.19637(4) 0.48984(4)
Cl1A Cl 0.3638(2) 0.16034(18) 0.58863(18)
N1A N 0.3798(5) 0.1810(5) 0.4072(5)
C1V C 0.3683(6) 0.1317(6) 0.3683(6)
N1V N 0.4072(5) 0.1202(5) 0.3190(5)
Cd1V Cd 0.48984(4) 0.18383(4) 0.30363(4)
Cl1V Cl 0.58863(18) 0.1362(2) 0.33966(18)
N2V N 0.4285(5) 0.2188(5) 0.3867(5)
C2V C 0.4411(7) 0.2667(6) 0.4210(6)
H1V H 0.4176 0.2722 0.4576
C3V C 0.4898(7) 0.3134(7) 0.4069(7)
C4V C 0.5174(6) 0.3212(7) 0.3460(6)
C5V C 0.5658(7) 0.3629(6) 0.3398(7)
H2V H 0.5842 0.3679 0.3004
C6V C 0.5890(6) 0.3982(6) 0.3900(6)
H3V H 0.6236 0.4245 0.3845
C7V C 0.5604(7) 0.3938(7) 0.4473(7)
H4V H 0.5741 0.4187 0.4805
C8V C 0.5100(6) 0.3515(6) 0.4561(7)
H5V H 0.4903 0.3490 0.4950
O1V O 0.4959(4) 0.2895(4) 0.2974(4)
O1B O 0.4959(4) 0.2105(4) 0.2026(4)
Cd1B Cd 0.48984(4) 0.31617(4) 0.19637(4)
Cl1B Cl 0.58863(18) 0.3638(2) 0.16034(18)
N1B N 0.4072(5) 0.3798(5) 0.1810(5)
C1P C 0.3683(6) 0.3683(6) 0.1317(6)
N1P N 0.3190(5) 0.4072(5) 0.1202(5)
Cd1P Cd 0.30363(4) 0.48984(4) 0.18383(4)
Cl1P Cl 0.33966(18) 0.58863(18) 0.1362(2)
N2P N 0.3867(5) 0.4285(5) 0.2188(5)
C2P C 0.4210(6) 0.4411(7) 0.2667(6)
H1P H 0.4576 0.4176 0.2722
C3P C 0.4069(7) 0.4898(7) 0.3134(7)
C4P C 0.3460(6) 0.5174(6) 0.3212(7)
C5P C 0.3398(7) 0.5658(7) 0.3629(6)
H2P H 0.3004 0.5842 0.3679
C6P C 0.3900(6) 0.5890(6) 0.3982(6)
H3P H 0.3845 0.6236 0.4245
C7P C 0.4473(7) 0.5604(7) 0.3938(7)
H4P H 0.4805 0.5741 0.4187
C8P C 0.4561(7) 0.5100(6) 0.3515(6)
H5P H 0.4950 0.4903 0.3490
O1P O 0.2974(4) 0.4959(4) 0.2895(4)
N2R N 0.2812(5) 0.3867(5) 0.0715(5)
Cd1R Cd 0.31617(4) 0.30363(4) 0.01016(4)
Cl1R Cl 0.3638(2) 0.33966(18) -0.08863(18)
N1R N 0.3798(5) 0.3190(5) 0.0928(5)
N2B N 0.4285(5) 0.2812(5) 0.1133(5)
C2B C 0.4411(7) 0.2333(6) 0.0790(6)
H1B H 0.4176 0.2278 0.0424
C3B C 0.4898(7) 0.1866(7) 0.0931(7)
C4B C 0.5174(6) 0.1788(7) 0.1540(6)
C5B C 0.5658(7) 0.1371(6) 0.1602(7)
H2B H 0.5842 0.1321 0.1996
C6B C 0.5890(6) 0.1018(6) 0.1100(6)
H3B H 0.6236 0.0755 0.1155
C7B C 0.5604(7) 0.1062(7) 0.0527(7)
H4B H 0.5741 0.0813 0.0195
C8B C 0.5100(6) 0.1485(6) 0.0439(7)
H5B H 0.4903 0.1510 0.0050
O1R O 0.2105(4) 0.2974(4) 0.0041(4)
Cd1T Cd 0.18383(4) 0.19637(4) 0.01016(4)
Cl1T Cl 0.1362(2) 0.16034(18) -0.08863(18)
N1T N 0.1202(5) 0.1810(5) 0.0928(5)
C1W C 0.1317(6) 0.1317(6) 0.1317(6)
N1W N 0.0928(5) 0.1202(5) 0.1810(5)
Cd1W Cd 0.01016(4) 0.18383(4) 0.19637(4)
Cl1W Cl -0.08863(18) 0.1362(2) 0.16034(18)
N2W N 0.0715(5) 0.2188(5) 0.1133(5)
C2W C 0.0589(7) 0.2667(6) 0.0790(6)
H1W H 0.0824 0.2722 0.0424
C3W C 0.0102(7) 0.3134(7) 0.0931(7)
C4W C -0.0174(6) 0.3212(7) 0.1540(6)
C5W C -0.0658(7) 0.3629(6) 0.1602(7)
H2W H -0.0842 0.3679 0.1996
C6W C -0.0890(6) 0.3982(6) 0.1100(6)
H3W H -0.1236 0.4245 0.1155
C7W C -0.0604(7) 0.3938(7) 0.0527(7)
H4W H -0.0741 0.4187 0.0195
C8W C -0.0100(6) 0.3515(6) 0.0439(7)
H5W H 0.0097 0.3490 0.0050
O1W O 0.0041(4) 0.2895(4) 0.2026(4)
O1U O 0.0041(4) 0.2105(4) 0.2974(4)
C4U C -0.0174(6) 0.1788(7) 0.3460(6)
C3U C 0.0102(7) 0.1866(7) 0.4069(7)
C2U C 0.0589(7) 0.2333(6) 0.4210(6)
H1U H 0.0824 0.2278 0.4576
C8U C -0.0100(6) 0.1485(6) 0.4561(7)
C7U C -0.0604(7) 0.1062(7) 0.4473(7)
C6U C -0.0890(6) 0.1018(6) 0.3900(6)
C5U C -0.0658(7) 0.1371(6) 0.3398(7)
H2U H -0.0842 0.1321 0.3004
H3U H -0.1236 0.0755 0.3845
H4U H -0.0741 0.0813 0.4805
H5U H 0.0097 0.1510 0.4950
N2Q N 0.1133(5) 0.0715(5) 0.2188(5)
Cd1Q Cd 0.19637(4) 0.01016(4) 0.18383(4)
Cl1Q Cl 0.16034(18) -0.08863(18) 0.1362(2)
N1Q N 0.1810(5) 0.0928(5) 0.1202(5)
N2T N 0.2188(5) 0.1133(5) 0.0715(5)
O1T O 0.2895(4) 0.2026(4) 0.0041(4)
C4T C 0.3212(7) 0.1540(6) -0.0174(6)
C3T C 0.3134(7) 0.0931(7) 0.0102(7)
C2T C 0.2667(6) 0.0790(6) 0.0589(7)
H1T H 0.2722 0.0424 0.0824
C8T C 0.3515(6) 0.0439(7) -0.0100(6)
C7T C 0.3938(7) 0.0527(7) -0.0604(7)
C6T C 0.3982(6) 0.1100(6) -0.0890(6)
C5T C 0.3629(6) 0.1602(7) -0.0658(7)
H2T H 0.3679 0.1996 -0.0842
H3T H 0.4245 0.1155 -0.1236
H4T H 0.4187 0.0195 -0.0741
H5T H 0.3490 0.0050 0.0097
O1Q O 0.2026(4) 0.0041(4) 0.2895(4)
Cd1O Cd 0.30363(4) 0.01016(4) 0.31617(4)
Cl1O Cl 0.33966(18) -0.08863(18) 0.3638(2)
N1O N 0.3190(5) 0.0928(5) 0.3798(5)
N2A N 0.2812(5) 0.1133(5) 0.4285(5)
C2A C 0.2333(6) 0.0790(6) 0.4411(7)
H1A H 0.2278 0.0424 0.4176
C3A C 0.1866(7) 0.0931(7) 0.4898(7)
C4A C 0.1788(7) 0.1540(6) 0.5174(6)
C5A C 0.1371(6) 0.1602(7) 0.5658(7)
H2A H 0.1321 0.1996 0.5842
C6A C 0.1018(6) 0.1100(6) 0.5890(6)
H3A H 0.0755 0.1155 0.6236
C7A C 0.1062(7) 0.0527(7) 0.5604(7)
H4A H 0.0813 0.0195 0.5741
C8A C 0.1485(6) 0.0439(7) 0.5100(6)
H5A H 0.1510 0.0050 0.4903
N2O N 0.3867(5) 0.0715(5) 0.2812(5)
C2O C 0.4210(6) 0.0589(7) 0.2333(6)
H1O H 0.4576 0.0824 0.2278
C3O C 0.4069(7) 0.0102(7) 0.1866(7)
C4O C 0.3460(6) -0.0174(6) 0.1788(7)
C5O C 0.3398(7) -0.0658(7) 0.1371(6)
H2O H 0.3004 -0.0842 0.1321
C6O C 0.3900(6) -0.0890(6) 0.1018(6)
H3O H 0.3845 -0.1236 0.0755
C7O C 0.4473(7) -0.0604(7) 0.1062(7)
H4O H 0.4805 -0.0741 0.0813
C8O C 0.4561(7) -0.0100(6) 0.1485(6)
H5O H 0.4950 0.0097 0.1510
O1O O 0.2974(4) 0.0041(4) 0.2105(4)
C4Q C 0.1540(6) -0.0174(6) 0.3212(7)
C3Q C 0.0931(7) 0.0102(7) 0.3134(7)
C2Q C 0.0790(6) 0.0589(7) 0.2667(6)
H1Q H 0.0424 0.0824 0.2722
C8Q C 0.0439(7) -0.0100(6) 0.3515(6)
C7Q C 0.0527(7) -0.0604(7) 0.3938(7)
C6Q C 0.1100(6) -0.0890(6) 0.3982(6)
C5Q C 0.1602(7) -0.0658(7) 0.3629(6)
H2Q H 0.1996 -0.0842 0.3679
H3Q H 0.1155 -0.1236 0.4245
H4Q H 0.0195 -0.0741 0.4187
H5Q H 0.0050 0.0097 0.3490
C4R C 0.1788(7) 0.3460(6) -0.0174(6)
C3R C 0.1866(7) 0.4069(7) 0.0102(7)
C2R C 0.2333(6) 0.4210(6) 0.0589(7)
H1R H 0.2278 0.4576 0.0824
C8R C 0.1485(6) 0.4561(7) -0.0100(6)
C7R C 0.1062(7) 0.4473(7) -0.0604(7)
C6R C 0.1018(6) 0.3900(6) -0.0890(6)
C5R C 0.1371(6) 0.3398(7) -0.0658(7)
H2R H 0.1321 0.3004 -0.0842
H3R H 0.0755 0.3845 -0.1236
H4R H 0.0813 0.4805 -0.0741
H5R H 0.1510 0.4950 0.0097
loop_
_geom_bond_atom_site_label_1
_geom_bond_atom_site_label_2
_geom_bond_site_symmetry_1
_geom_bond_site_symmetry_2
Cd1 Cl1 1_555 1_555
C1 N1 1_555 1_555
N1 Cd1 1_555 1_555
N2 Cd1 1_555 1_555
C2 N2 1_555 1_555
H1 C2 1_555 1_555
C3 C2 1_555 1_555
C4 C3 1_555 1_555
C5 C4 1_555 1_555
H2 C5 1_555 1_555
C6 C5 1_555 1_555
H3 C6 1_555 1_555
C7 C6 1_555 1_555
H4 C7 1_555 1_555
C8 C3 1_555 1_555
H5 C8 1_555 1_555
O1 Cd1 1_555 1_555
N4 C11 1_555 1_555
C11 C12 1_555 1_555
C13 N4 1_555 1_555
C14 C13 1_555 1_555
N6 C18 1_555 1_555
C18 O2 1_555 1_555
C19 N6 1_555 1_555
N1U C1 1_555 1_555
Cd1U N1U 1_555 1_555
Cl1U Cd1U 1_555 1_555
N2U Cd1U 1_555 1_555
N1S C1 1_555 1_555
Cd1S N1S 1_555 1_555
Cl1S Cd1S 1_555 1_555
N2S N1 1_555 1_555
C2S N2S 1_555 1_555
H1S C2S 1_555 1_555
C3S C2S 1_555 1_555
C4S C3S 1_555 1_555
C5S C4S 1_555 1_555
H2S C5S 1_555 1_555
C6S C5S 1_555 1_555
H3S C6S 1_555 1_555
C7S C6S 1_555 1_555
H4S C7S 1_555 1_555
C8S C3S 1_555 1_555
H5S C8S 1_555 1_555
O1S Cd1S 1_555 1_555
O1A Cd1S 1_555 1_555
Cd1A O1S 1_555 1_555
Cl1A Cd1A 1_555 1_555
N1A Cd1A 1_555 1_555
C1V N1A 1_555 1_555
N1V C1V 1_555 1_555
Cd1V N1V 1_555 1_555
Cl1V Cd1V 1_555 1_555
N2V N1A 1_555 1_555
C2V N2V 1_555 1_555
H1V C2V 1_555 1_555
C3V C2V 1_555 1_555
C4V C3V 1_555 1_555
C5V C4V 1_555 1_555
H2V C5V 1_555 1_555
C6V C5V 1_555 1_555
H3V C6V 1_555 1_555
C7V C6V 1_555 1_555
H4V C7V 1_555 1_555
C8V C3V 1_555 1_555
H5V C8V 1_555 1_555
O1V Cd1V 1_555 1_555
O1B Cd1V 1_555 1_555
Cd1B O1V 1_555 1_555
Cl1B Cd1B 1_555 1_555
N1B Cd1B 1_555 1_555
C1P N1B 1_555 1_555
N1P C1P 1_555 1_555
Cd1P O1 1_555 1_555
Cl1P Cd1P 1_555 1_555
N2P N1B 1_555 1_555
C2P N2P 1_555 1_555
H1P C2P 1_555 1_555
C3P C2P 1_555 1_555
C4P C3P 1_555 1_555
C5P C4P 1_555 1_555
H2P C5P 1_555 1_555
C6P C5P 1_555 1_555
H3P C6P 1_555 1_555
C7P C6P 1_555 1_555
H4P C7P 1_555 1_555
C8P C3P 1_555 1_555
H5P C8P 1_555 1_555
O1P Cd1 1_555 1_555
N2R N1P 1_555 1_555
Cd1R N2R 1_555 1_555
Cl1R Cd1R 1_555 1_555
N1R C1P 1_555 1_555
N2B Cd1B 1_555 1_555
C2B N2B 1_555 1_555
H1B C2B 1_555 1_555
C3B C2B 1_555 1_555
C4B O1B 1_555 1_555
C5B C4B 1_555 1_555
H2B C5B 1_555 1_555
C6B C5B 1_555 1_555
H3B C6B 1_555 1_555
C7B C6B 1_555 1_555
H4B C7B 1_555 1_555
C8B C3B 1_555 1_555
H5B C8B 1_555 1_555
O1R Cd1R 1_555 1_555
Cd1T O1R 1_555 1_555
Cl1T Cd1T 1_555 1_555
N1T Cd1T 1_555 1_555
C1W N1T 1_555 1_555
N1W C1W 1_555 1_555
Cd1W N1W 1_555 1_555
Cl1W Cd1W 1_555 1_555
N2W N1T 1_555 1_555
C2W N2W 1_555 1_555
H1W C2W 1_555 1_555
C3W C2W 1_555 1_555
C4W C3W 1_555 1_555
C5W C4W 1_555 1_555
H2W C5W 1_555 1_555
C6W C5W 1_555 1_555
H3W C6W 1_555 1_555
C7W C6W 1_555 1_555
H4W C7W 1_555 1_555
C8W C3W 1_555 1_555
H5W C8W 1_555 1_555
O1W Cd1U 1_555 1_555
O1U Cd1U 1_555 1_555
C4U O1U 1_555 1_555
C3U C4U 1_555 1_555
C2U N2U 1_555 1_555
H1U C2U 1_555 1_555
C8U C3U 1_555 1_555
C7U C8U 1_555 1_555
C6U C7U 1_555 1_555
C5U C4U 1_555 1_555
H2U C5U 1_555 1_555
H3U C6U 1_555 1_555
H4U C7U 1_555 1_555
H5U C8U 1_555 1_555
N2Q N1W 1_555 1_555
Cd1Q N2Q 1_555 1_555
Cl1Q Cd1Q 1_555 1_555
N1Q C1W 1_555 1_555
N2T Cd1T 1_555 1_555
O1T Cd1R 1_555 1_555
C4T O1T 1_555 1_555
C3T C4T 1_555 1_555
C2T N2T 1_555 1_555
H1T C2T 1_555 1_555
C8T C3T 1_555 1_555
C7T C8T 1_555 1_555
C6T C7T 1_555 1_555
C5T C4T 1_555 1_555
H2T C5T 1_555 1_555
H3T C6T 1_555 1_555
H4T C7T 1_555 1_555
H5T C8T 1_555 1_555
O1Q Cd1Q 1_555 1_555
Cd1O O1Q 1_555 1_555
Cl1O Cd1O 1_555 1_555
N1O C1V 1_555 1_555
N2A Cd1A 1_555 1_555
C2A N2A 1_555 1_555
H1A C2A 1_555 1_555
C3A C2A 1_555 1_555
C4A O1A 1_555 1_555
C5A C4A 1_555 1_555
H2A C5A 1_555 1_555
C6A C5A 1_555 1_555
H3A C6A 1_555 1_555
C7A C6A 1_555 1_555
H4A C7A 1_555 1_555
C8A C3A 1_555 1_555
H5A C8A 1_555 1_555
N2O N1V 1_555 1_555
C2O N2O 1_555 1_555
H1O C2O 1_555 1_555
C3O C2O 1_555 1_555
C4O C3O 1_555 1_555
C5O C4O 1_555 1_555
H2O C5O 1_555 1_555
C6O C5O 1_555 1_555
H3O C6O 1_555 1_555
C7O C6O 1_555 1_555
H4O C7O 1_555 1_555
C8O C3O 1_555 1_555
H5O C8O 1_555 1_555
O1O Cd1Q 1_555 1_555
C4Q O1Q 1_555 1_555
C3Q C4Q 1_555 1_555
C2Q N2Q 1_555 1_555
H1Q C2Q 1_555 1_555
C8Q C3Q 1_555 1_555
C7Q C8Q 1_555 1_555
C6Q C7Q 1_555 1_555
C5Q C4Q 1_555 1_555
H2Q C5Q 1_555 1_555
H3Q C6Q 1_555 1_555
H4Q C7Q 1_555 1_555
H5Q C8Q 1_555 1_555
C4R O1R 1_555 1_555
C3R C4R 1_555 1_555
C2R N2R 1_555 1_555
H1R C2R 1_555 1_555
C8R C3R 1_555 1_555
C7R C8R 1_555 1_555
C6R C7R 1_555 1_555
C5R C4R 1_555 1_555
H2R C5R 1_555 1_555
H3R C6R 1_555 1_555
H4R C7R 1_555 1_555
H5R C8R 1_555 1_555
C11Q N4 1_555 1_555
C12Q C11Q 1_555 1_555
C13Q N4 1_555 1_555
C14Q C13Q 1_555 1_555
C18O N6 1_555 1_555
C18P N6 1_555 1_555
C18Q N6 1_555 1_555
O2O C18O 1_555 1_555
O2Q C18Q 1_555 1_555
C19O N6 1_555 1_555
O2P C18P 1_555 1_555
N2 N1U 1_555 1_555
C4 O1 1_555 1_555
C7 C8 1_555 1_555
C18 C18O 1_555 1_555
C18 C19O 1_555 1_555
C19 C18O 1_555 1_555
C19 C18Q 1_555 1_555
N2U N1S 1_555 1_555
Cd1S N2S 1_555 1_555
C4S O1S 1_555 1_555
C7S C8S 1_555 1_555
O1A Cd1A 1_555 1_555
Cd1V N2V 1_555 1_555
C4V O1V 1_555 1_555
C7V C8V 1_555 1_555
O1B Cd1B 1_555 1_555
N1P Cd1P 1_555 1_555
Cd1P N2P 1_555 1_555
Cd1P O1P 1_555 1_555
C4P O1P 1_555 1_555
C7P C8P 1_555 1_555
Cd1R N1R 1_555 1_555
N1R N2B 1_555 1_555
C3B C4B 1_555 1_555
C7B C8B 1_555 1_555
Cd1T O1T 1_555 1_555
Cd1W N2W 1_555 1_555
Cd1W O1U 1_555 1_555
Cd1W O1W 1_555 1_555
C4W O1W 1_555 1_555
C7W C8W 1_555 1_555
C3U C2U 1_555 1_555
C6U C5U 1_555 1_555
Cd1Q N1Q 1_555 1_555
N1Q N2T 1_555 1_555
C3T C2T 1_555 1_555
C6T C5T 1_555 1_555
Cd1O N1O 1_555 1_555
Cd1O N2O 1_555 1_555
Cd1O O1O 1_555 1_555
N1O N2A 1_555 1_555
C3A C4A 1_555 1_555
C7A C8A 1_555 1_555
C4O O1O 1_555 1_555
C7O C8O 1_555 1_555
C3Q C2Q 1_555 1_555
C6Q C5Q 1_555 1_555
C3R C2R 1_555 1_555
C6R C5R 1_555 1_555
C18P C18Q 1_555 1_555
C18P C19O 1_555 1_555

#END
