
#######################################################################
#
#                 Cambridge Crystallographic Data Centre
#                                CCDC 
#
#######################################################################
#
# If this CIF has been generated from an entry in the Cambridge 
# Structural Database, then it will include bibliographic, chemical, 
# crystal, experimental, refinement or atomic coordinate data resulting 
# from the CCDC's data processing and validation procedures.
#
#######################################################################

data_MORBIG
_chemical_formula_moiety         'C60 H42 Cu6 O18'
_chemical_name_systematic        
bis(\m-4,4',4''-(benzene-1,3,5-triyltris(methyleneoxy))tribenzoato)-hexa-copper
_symmetry_cell_setting           triclinic
_symmetry_space_group_name_H-M   'P -1'
_symmetry_Int_Tables_number      2
_space_group_name_Hall           '-P 1'
loop_
_symmetry_equiv_pos_site_id
_symmetry_equiv_pos_as_xyz
1 x,y,z
2 -x,-y,-z
_cell_length_a                   11.0572(17)
_cell_length_b                   11.7719(11)
_cell_length_c                   12.2096(17)
_cell_angle_alpha                69.518(11)
_cell_angle_beta                 67.483(14)
_cell_angle_gamma                65.832(12)
_cell_volume                     1303.78
_exptl_crystal_colour            colorless
_exptl_crystal_description       Plate
_cell_formula_units_Z            1
loop_
_atom_site_label
_atom_site_type_symbol
_atom_site_fract_x
_atom_site_fract_y
_atom_site_fract_z
C1 C 0.8660(5) 1.0352(4) 0.2458(5)
C2 C 0.7440(5) 1.1025(4) 0.3331(4)
C3 C 0.7564(5) 1.1725(4) 0.3966(5)
H1 H 0.8430 1.1767 0.3843
C4 C 0.6455(5) 1.2349(5) 0.4762(5)
H2 H 0.6561 1.2836 0.5156
C5 C 0.6143(5) 1.0978(4) 0.3529(5)
H3 H 0.6035 1.0524 0.3103
C6 C 0.4999(5) 1.1596(4) 0.4351(5)
H4 H 0.4130 1.1561 0.4473
C7 C 0.5165(5) 1.2263(4) 0.4989(4)
C8 C 0.2743(5) 1.2911(5) 0.6059(5)
H5 H 0.2153 1.3240 0.6779
H6 H 0.2721 1.2054 0.6208
C9 C 0.2190(5) 1.3750(5) 0.4987(5)
C10 C 0.2535(5) 1.4866(5) 0.4334(5)
H7 H 0.3060 1.5115 0.4591
C11 C 0.1379(5) 1.3427(4) 0.4604(5)
H8 H 0.1122 1.2699 0.5046
C12 C 0.0940(5) 1.4149(4) 0.3588(5)
C13 C 0.2100(5) 1.5601(4) 0.3310(5)
C14 C 0.1300(5) 1.5245(5) 0.2948(5)
H9 H 0.0998 1.5748 0.2264
C15 C 0.0150(5) 1.3724(5) 0.3122(5)
H10 H -0.0817 1.3963 0.3581
H11 H 0.0215 1.4158 0.2274
C16 C 0.1997(5) 1.1868(5) 0.2559(5)
C17 C 0.2785(5) 1.2572(5) 0.1592(5)
H12 H 0.2404 1.3452 0.1338
C18 C 0.2568(5) 1.0538(4) 0.2884(5)
H13 H 0.2042 1.0057 0.3504
C19 C 0.4121(5) 1.1962(4) 0.1020(5)
H14 H 0.4641 1.2445 0.0395
C20 C 0.3898(5) 0.9941(5) 0.2294(5)
H15 H 0.4270 0.9056 0.2518
C21 C 0.4718(5) 1.0658(4) 0.1340(4)
C22 C 0.6150(5) 1.0020(4) 0.0689(4)
C23 C 0.2574(5) 1.6758(5) 0.2541(5)
H16 H 0.2616 1.6879 0.1701
H17 H 0.1895 1.7514 0.2820
C24 C 0.5045(5) 1.5783(4) 0.2036(4)
C25 C 0.6294(5) 1.5866(4) 0.1930(5)
H18 H 0.6304 1.6493 0.2220
C26 C 0.5042(5) 1.4859(5) 0.1574(5)
H19 H 0.4211 1.4800 0.1617
C27 C 0.7519(5) 1.5048(4) 0.1407(4)
H20 H 0.8351 1.5113 0.1354
C28 C 0.6275(5) 1.4030(4) 0.1052(5)
H21 H 0.6270 1.3402 0.0760
C29 C 0.7515(5) 1.4122(4) 0.0957(4)
C30 C 0.8845(5) 1.3230(4) 0.0368(5)
O1 O 0.9821(4) 1.0438(3) 0.2304(3)
O2 O 0.8471(4) 0.9700(3) 0.1946(3)
O3 O 0.6819(4) 1.0717(3) -0.0142(3)
O4 O 0.6606(3) 0.8803(3) 0.1009(3)
O5 O 0.9963(4) 1.3329(3) 0.0295(4)
O6 O 0.8746(4) 1.2407(3) -0.0016(3)
O7 O 0.4128(3) 1.2856(3) 0.5858(3)
O8 O 0.0681(3) 1.2359(3) 0.3231(3)
O9 O 0.3902(3) 1.6636(3) 0.2591(3)
Cu1 Cu 1.14320(6) 0.99099(6) 0.11333(6)
Cu2 Cu 0.98259(6) 0.87666(5) 0.08480(6)
Cu3 Cu 0.83336(7) 0.78073(6) 0.02901(7)
C1A C 1.1340(5) 0.9648(4) -0.2458(5)
C2A C 1.2560(5) 0.8975(4) -0.3331(4)
C3A C 1.2436(5) 0.8275(4) -0.3966(5)
H1A H 1.1570 0.8233 -0.3843
C4A C 1.3545(5) 0.7651(5) -0.4762(5)
H2A H 1.3439 0.7164 -0.5156
C5A C 1.3857(5) 0.9022(4) -0.3529(5)
H3A H 1.3965 0.9476 -0.3103
C6A C 1.5001(5) 0.8404(4) -0.4351(5)
H4A H 1.5870 0.8439 -0.4473
C7A C 1.4835(5) 0.7737(4) -0.4989(4)
C8A C 1.7257(5) 0.7089(5) -0.6059(5)
H5A H 1.7847 0.6760 -0.6779
H6A H 1.7279 0.7946 -0.6208
C9A C 1.7810(5) 0.6250(5) -0.4987(5)
C10A C 1.7465(5) 0.5134(5) -0.4334(5)
H7A H 1.6940 0.4885 -0.4591
C11A C 1.8621(5) 0.6573(4) -0.4604(5)
H8A H 1.8878 0.7301 -0.5046
C12A C 1.9060(5) 0.5851(4) -0.3588(5)
C13A C 1.7900(5) 0.4399(4) -0.3310(5)
C14A C 1.8700(5) 0.4755(5) -0.2948(5)
H9A H 1.9002 0.4252 -0.2264
C15A C 1.9850(5) 0.6276(5) -0.3122(5)
H10A H 2.0817 0.6037 -0.3581
H11A H 1.9785 0.5842 -0.2274
C16A C 1.8003(5) 0.8132(5) -0.2559(5)
C17A C 1.7215(5) 0.7428(5) -0.1592(5)
H12A H 1.7596 0.6548 -0.1338
C18A C 1.7432(5) 0.9462(4) -0.2884(5)
H13A H 1.7958 0.9943 -0.3504
C19A C 1.5879(5) 0.8038(4) -0.1020(5)
H14A H 1.5359 0.7555 -0.0395
C20A C 1.6102(5) 1.0059(5) -0.2294(5)
H15A H 1.5730 1.0944 -0.2518
C21A C 1.5282(5) 0.9342(4) -0.1340(4)
C22A C 1.3850(5) 0.9980(4) -0.0689(4)
C23A C 1.7426(5) 0.3242(5) -0.2541(5)
H16A H 1.7384 0.3121 -0.1701
H17A H 1.8105 0.2486 -0.2820
C24A C 1.4955(5) 0.4217(4) -0.2036(4)
C25A C 1.3706(5) 0.4134(4) -0.1930(5)
H18A H 1.3696 0.3507 -0.2220
C26A C 1.4958(5) 0.5141(5) -0.1574(5)
H19A H 1.5789 0.5200 -0.1617
C27A C 1.2481(5) 0.4952(4) -0.1407(4)
H20A H 1.1649 0.4887 -0.1354
C28A C 1.3725(5) 0.5970(4) -0.1052(5)
H21A H 1.3730 0.6598 -0.0760
C29A C 1.2485(5) 0.5878(4) -0.0957(4)
C30A C 1.1155(5) 0.6770(4) -0.0368(5)
O1A O 1.0179(4) 0.9562(3) -0.2304(3)
O2A O 1.1529(4) 1.0300(3) -0.1946(3)
O3A O 1.3181(4) 0.9283(3) 0.0142(3)
O4A O 1.3394(3) 1.1197(3) -0.1009(3)
O5A O 1.0037(4) 0.6671(3) -0.0295(4)
O6A O 1.1254(4) 0.7593(3) 0.0016(3)
O7A O 1.5872(3) 0.7144(3) -0.5858(3)
O8A O 1.9319(3) 0.7641(3) -0.3231(3)
O9A O 1.6098(3) 0.3364(3) -0.2591(3)
Cu1A Cu 0.85680(6) 1.00901(6) -0.11333(6)
Cu2A Cu 1.01741(6) 1.12334(5) -0.08480(6)
Cu3A Cu 1.16664(7) 1.21927(6) -0.02901(7)
loop_
_geom_bond_atom_site_label_1
_geom_bond_atom_site_label_2
_geom_bond_site_symmetry_1
_geom_bond_site_symmetry_2
C1 C2 1_555 1_555
C2 C3 1_555 1_555
C3 H1 1_555 1_555
C4 C3 1_555 1_555
H2 C4 1_555 1_555
C5 C2 1_555 1_555
H3 C5 1_555 1_555
C6 C5 1_555 1_555
H4 C6 1_555 1_555
C7 C4 1_555 1_555
C8 H5 1_555 1_555
H6 C8 1_555 1_555
C9 C8 1_555 1_555
C10 C9 1_555 1_555
H7 C10 1_555 1_555
C11 C9 1_555 1_555
H8 C11 1_555 1_555
C12 C11 1_555 1_555
C13 C10 1_555 1_555
C14 C12 1_555 1_555
H9 C14 1_555 1_555
C15 C12 1_555 1_555
H10 C15 1_555 1_555
H11 C15 1_555 1_555
C16 C17 1_555 1_555
C17 H12 1_555 1_555
C18 C16 1_555 1_555
H13 C18 1_555 1_555
C19 C17 1_555 1_555
H14 C19 1_555 1_555
C20 C18 1_555 1_555
H15 C20 1_555 1_555
C21 C19 1_555 1_555
C22 C21 1_555 1_555
C23 C13 1_555 1_555
H16 C23 1_555 1_555
H17 C23 1_555 1_555
C24 C25 1_555 1_555
C25 H18 1_555 1_555
C26 C24 1_555 1_555
H19 C26 1_555 1_555
C27 C25 1_555 1_555
H20 C27 1_555 1_555
C28 C26 1_555 1_555
H21 C28 1_555 1_555
C29 C27 1_555 1_555
C30 C29 1_555 1_555
O1 C1 1_555 1_555
O2 C1 1_555 1_555
O3 C22 1_555 1_555
O4 C22 1_555 1_555
O5 C30 1_555 1_555
O6 C30 1_555 1_555
O7 C7 1_555 1_555
O8 C15 1_555 1_555
O9 C23 1_555 1_555
Cu1 O1 1_555 1_555
Cu2 O2 1_555 1_555
Cu3 O4 1_555 1_555
C1A C2A 1_555 1_555
C2A C3A 1_555 1_555
C3A H1A 1_555 1_555
C4A C3A 1_555 1_555
H2A C4A 1_555 1_555
C5A C2A 1_555 1_555
H3A C5A 1_555 1_555
C6A C5A 1_555 1_555
H4A C6A 1_555 1_555
C7A C4A 1_555 1_555
C8A H5A 1_555 1_555
H6A C8A 1_555 1_555
C9A C8A 1_555 1_555
C10A C9A 1_555 1_555
H7A C10A 1_555 1_555
C11A C9A 1_555 1_555
H8A C11A 1_555 1_555
C12A C11A 1_555 1_555
C13A C10A 1_555 1_555
C14A C12A 1_555 1_555
H9A C14A 1_555 1_555
C15A C12A 1_555 1_555
H10A C15A 1_555 1_555
H11A C15A 1_555 1_555
C16A C17A 1_555 1_555
C17A H12A 1_555 1_555
C18A C16A 1_555 1_555
H13A C18A 1_555 1_555
C19A C17A 1_555 1_555
H14A C19A 1_555 1_555
C20A C18A 1_555 1_555
H15A C20A 1_555 1_555
C21A C19A 1_555 1_555
C22A C21A 1_555 1_555
C23A C13A 1_555 1_555
H16A C23A 1_555 1_555
H17A C23A 1_555 1_555
C24A C25A 1_555 1_555
C25A H18A 1_555 1_555
C26A C24A 1_555 1_555
H19A C26A 1_555 1_555
C27A C25A 1_555 1_555
H20A C27A 1_555 1_555
C28A C26A 1_555 1_555
H21A C28A 1_555 1_555
C29A C27A 1_555 1_555
C30A C29A 1_555 1_555
O1A C1A 1_555 1_555
O2A C1A 1_555 1_555
O3A Cu1 1_555 1_555
O4A C22A 1_555 1_555
O5A Cu3 1_555 1_555
O6A Cu2 1_555 1_555
O7A C7A 1_555 1_555
O8A C15A 1_555 1_555
O9A C23A 1_555 1_555
Cu1A O3 1_555 1_555
Cu2A O6 1_555 1_555
Cu3A O5 1_555 1_555
C6 C7 1_555 1_555
C8 O7 1_555 1_555
C13 C14 1_555 1_555
C16 O8 1_555 1_555
C20 C21 1_555 1_555
C24 O9 1_555 1_555
C28 C29 1_555 1_555
Cu1 Cu2 1_555 1_555
Cu1 Cu3A 1_555 1_555
Cu2 Cu3 1_555 1_555
Cu3 Cu1A 1_555 1_555
C6A C7A 1_555 1_555
C8A O7A 1_555 1_555
C13A C14A 1_555 1_555
C16A O8A 1_555 1_555
C20A C21A 1_555 1_555
C22A O3A 1_555 1_555
C24A O9A 1_555 1_555
C28A C29A 1_555 1_555
C30A O5A 1_555 1_555
C30A O6A 1_555 1_555
O1A Cu1A 1_555 1_555
O2A Cu2A 1_555 1_555
O4A Cu3A 1_555 1_555
Cu1A Cu2A 1_555 1_555
Cu2A Cu3A 1_555 1_555

#END
