
#######################################################################
#
#                 Cambridge Crystallographic Data Centre
#                                CCDC 
#
#######################################################################
#
# If this CIF has been generated from an entry in the Cambridge 
# Structural Database, then it will include bibliographic, chemical, 
# crystal, experimental, refinement or atomic coordinate data resulting 
# from the CCDC's data processing and validation procedures.
#
#######################################################################

data_NAPFUH
_chemical_formula_moiety         
'C72 H44 N8 Pt2 4+,8(C2 H6 O1 S1),2(F6 P1 1-),2(C6 H6),2(B1 F4 1-),C6 H6 O2'
_chemical_name_systematic        
"bis(\m~2~-7-[3'-(pyridin-2-yl)biphenyl-3-yl]quinolino[8,7-b][1,10]phenanthroline)-di-platinum(ii) bis(hexafluorophosphate) bis(tetrafluoroborate) benzene-1,2-diol dimethyl sulfoxide benzene solvate"
_symmetry_cell_setting           monoclinic
_symmetry_space_group_name_H-M   'C 2/c'
_symmetry_Int_Tables_number      15
_space_group_name_Hall           '-C 2yn'
loop_
_symmetry_equiv_pos_site_id
_symmetry_equiv_pos_as_xyz
1 x,y,z
2 -x,y,1/2-z
3 1/2+x,1/2+y,z
4 1/2-x,1/2+y,1/2-z
5 -x,-y,-z
6 x,-y,1/2+z
7 1/2-x,1/2-y,-z
8 1/2+x,1/2-y,1/2+z
_cell_length_a                   33.767(2)
_cell_length_b                   15.5570(10)
_cell_length_c                   25.7970(15)
_cell_angle_alpha                90
_cell_angle_beta                 116.7028(14)
_cell_angle_gamma                90
_cell_volume                     12106.2
_exptl_crystal_colour            brown
_exptl_crystal_description       prismatic
_cell_formula_units_Z            4
_exptl_crystal_recrystallization_method 'dimethyl sulfoxide/benzene'
loop_
_atom_site_label
_atom_site_type_symbol
_atom_site_fract_x
_atom_site_fract_y
_atom_site_fract_z
O1 O 0.5361(9) 0.4447(17) 0.2920(10)
H23 H 0.5187 0.4063 0.2711
O2 O 0.5806(8) 0.5890(18) 0.3432(10)
H24 H 0.5907 0.5387 0.3475
C37 C 0.5200(4) 0.5172(11) 0.2729(6)
C38 C 0.5413(7) 0.5916(14) 0.2978(8)
C39 C 0.5205(7) 0.6689(12) 0.2738(7)
H27 H 0.5346 0.7218 0.2902
O1A O 0.4639(9) 0.4447(17) 0.2080(10)
H23A H 0.4813 0.4063 0.2289
O2A O 0.4194(8) 0.5890(18) 0.1568(10)
H24A H 0.4093 0.5387 0.1525
C37A C 0.4800(4) 0.5172(11) 0.2271(6)
C38A C 0.4587(7) 0.5916(14) 0.2022(8)
C39A C 0.4795(7) 0.6689(12) 0.2262(7)
H27A H 0.4654 0.7218 0.2098
P1 P 0.24801(13) 0.9226(3) 0.26264(14)
F1 F 0.2637(4) 0.9508(9) 0.2183(4)
F2 F 0.2041(4) 0.8931(13) 0.2160(4)
F3 F 0.2303(4) 0.8889(12) 0.3059(4)
F4 F 0.2676(7) 0.8375(9) 0.2668(13)
F5 F 0.2923(5) 0.9489(17) 0.3102(5)
F6 F 0.2304(6) 1.0036(9) 0.2689(13)
F7 F 0.5523(4) 0.8307(6) 0.6484(5)
F8 F 0.4874(3) 0.7788(6) 0.5817(5)
F9 F 0.5188(4) 0.8950(5) 0.5624(4)
F10 F 0.4916(4) 0.9084(6) 0.6265(5)
B1 B 0.5070(8) 0.8524(8) 0.6022(7)
S1 S 0.1804(8) 0.6777(9) 0.3267(8)
O3 O 0.1561(11) 0.6010(17) 0.3321(13)
C40 C 0.1770(9) 0.6710(10) 0.2559(8)
H28 H 0.1459 0.6728 0.2268
H29 H 0.1905 0.6170 0.2520
H30 H 0.1929 0.7196 0.2497
C41 C 0.2343(7) 0.6716(15) 0.3631(10)
H34 H 0.2429 0.6746 0.4047
H35 H 0.2478 0.7195 0.3521
H36 H 0.2444 0.6171 0.3543
S5 S 0.62184(15) 0.4225(3) 0.43095(19)
O7 O 0.6345(4) 0.4684(8) 0.3895(4)
C46 C 0.6698(5) 0.3904(10) 0.4909(6)
H52 H 0.6853 0.4411 0.5135
H53 H 0.6891 0.3598 0.4779
H54 H 0.6620 0.3522 0.5151
C47 C 0.6009(7) 0.3226(12) 0.3996(10)
H58 H 0.5729 0.3309 0.3645
H59 H 0.5956 0.2871 0.4273
H60 H 0.6223 0.2940 0.3895
S7 S 0.6192(5) 0.8822(9) 0.3766(6)
O8 O 0.6149(9) 0.8033(16) 0.3580(10)
C48 C 0.6157(16) 0.854(3) 0.442(2)
H64 H 0.6448 0.8338 0.4714
H65 H 0.5939 0.8077 0.4339
H66 H 0.6066 0.9041 0.4571
C49 C 0.5648(14) 0.921(3) 0.3334(19)
H70 H 0.5617 0.9378 0.2951
H71 H 0.5594 0.9714 0.3523
H72 H 0.5432 0.8761 0.3290
C53 C 0.4209(5) 0.6420(9) 0.4571(6)
H85 H 0.4489 0.6380 0.4902
C54 C 0.4007(5) 0.5685(10) 0.4270(5)
H86 H 0.4153 0.5148 0.4398
C55 C 0.3623(5) 0.5707(13) 0.3814(6)
H87 H 0.3495 0.5188 0.3615
C56 C 0.3404(6) 0.6462(19) 0.3621(7)
H88 H 0.3125 0.6467 0.3287
C57 C 0.3591(7) 0.7255(16) 0.3915(10)
H89 H 0.3437 0.7784 0.3787
C58 C 0.4007(6) 0.7221(11) 0.4396(7)
H90 H 0.4148 0.7730 0.4599
Pt1 Pt 0.377944(14) 0.66311(3) 0.256649(18)
C1 C 0.4236(4) 0.8080(7) 0.3241(6)
N1 N 0.3846(3) 0.7923(6) 0.2739(4)
C2 C 0.3599(5) 0.8595(8) 0.2470(6)
H1 H 0.3328 0.8502 0.2131
C3 C 0.3720(6) 0.9429(10) 0.2665(8)
H2 H 0.3535 0.9891 0.2450
C4 C 0.4099(6) 0.9601(10) 0.3157(9)
H3 H 0.4181 1.0175 0.3288
C5 C 0.4370(5) 0.8893(8) 0.3472(7)
C6 C 0.4504(4) 0.7377(6) 0.3519(5)
N2 N 0.4338(3) 0.6628(5) 0.3248(3)
C7 C 0.4544(4) 0.5884(6) 0.3455(4)
C8 C 0.4948(4) 0.5840(7) 0.3962(4)
C9 C 0.5125(3) 0.6634(6) 0.4247(4)
C10 C 0.4902(4) 0.7411(7) 0.4035(5)
C11 C 0.4311(3) 0.5165(6) 0.3117(4)
N3 N 0.3908(3) 0.5343(6) 0.2639(3)
C12 C 0.3686(4) 0.4660(8) 0.2324(5)
H4 H 0.3408 0.4746 0.1994
C13 C 0.3849(4) 0.3844(7) 0.2466(5)
H5 H 0.3682 0.3382 0.2227
C14 C 0.4244(4) 0.3663(7) 0.2941(5)
H6 H 0.4350 0.3089 0.3031
C15 C 0.4487(4) 0.4356(7) 0.3290(4)
C16 C 0.4780(5) 0.8953(9) 0.4008(6)
H7 H 0.4877 0.9503 0.4177
C17 C 0.5027(5) 0.8259(8) 0.4275(6)
H8 H 0.5289 0.8332 0.4629
C18 C 0.5124(4) 0.4991(7) 0.4134(4)
H9 H 0.5393 0.4916 0.4478
C19 C 0.4913(4) 0.4294(7) 0.3815(5)
H10 H 0.5046 0.3745 0.3935
C20 C 0.5557(4) 0.6636(7) 0.4815(4)
C21 C 0.5947(4) 0.6395(7) 0.4809(4)
H11 H 0.5941 0.6205 0.4455
C22 C 0.6353(4) 0.6424(7) 0.5315(4)
C23 C 0.6343(5) 0.6655(8) 0.5833(5)
H12 H 0.6610 0.6646 0.6186
C24 C 0.5952(5) 0.6895(8) 0.5841(5)
H13 H 0.5953 0.7059 0.6197
C25 C 0.5553(4) 0.6898(7) 0.5329(5)
H14 H 0.5285 0.7075 0.5331
C26 C 0.6775(4) 0.6243(7) 0.5291(4)
C27 C 0.6812(4) 0.6456(7) 0.4792(5)
H15 H 0.6565 0.6702 0.4474
C28 C 0.7200(4) 0.6321(7) 0.4743(5)
C29 C 0.7564(4) 0.5963(9) 0.5220(5)
H16 H 0.7832 0.5848 0.5197
C30 C 0.7528(5) 0.5777(9) 0.5728(5)
H17 H 0.7780 0.5562 0.6055
C31 C 0.7149(4) 0.5893(9) 0.5768(5)
H18 H 0.7132 0.5742 0.6114
C32 C 0.7214(4) 0.6509(7) 0.4195(5)
C33 C 0.6836(4) 0.6450(7) 0.3676(5)
H19 H 0.6575 0.6242 0.3686
N4 N 0.3192(3) 0.6665(6) 0.1846(4)
C34 C 0.2814(4) 0.6922(8) 0.1855(6)
H20 H 0.2821 0.7060 0.2217
C35 C 0.2422(4) 0.6992(10) 0.1364(6)
H21 H 0.2164 0.7184 0.1388
C36 C 0.7599(4) 0.6782(8) 0.4168(6)
H22 H 0.7872 0.6823 0.4511
Pt1A Pt 0.622056(14) 0.66311(3) 0.243351(18)
C1A C 0.5764(4) 0.8080(7) 0.1759(6)
N1A N 0.6154(3) 0.7923(6) 0.2261(4)
C2A C 0.6401(5) 0.8595(8) 0.2530(6)
H1A H 0.6672 0.8502 0.2869
C3A C 0.6280(6) 0.9429(10) 0.2335(8)
H2A H 0.6465 0.9891 0.2550
C4A C 0.5901(6) 0.9601(10) 0.1843(9)
H3A H 0.5819 1.0175 0.1712
C5A C 0.5630(5) 0.8893(8) 0.1528(7)
C6A C 0.5496(4) 0.7377(6) 0.1481(5)
N2A N 0.5662(3) 0.6628(5) 0.1752(3)
C7A C 0.5456(4) 0.5884(6) 0.1545(4)
C8A C 0.5052(4) 0.5840(7) 0.1038(4)
C9A C 0.4875(3) 0.6634(6) 0.0753(4)
C10A C 0.5098(4) 0.7411(7) 0.0965(5)
C11A C 0.5689(3) 0.5165(6) 0.1883(4)
N3A N 0.6092(3) 0.5343(6) 0.2361(3)
C12A C 0.6314(4) 0.4660(8) 0.2676(5)
H4A H 0.6592 0.4746 0.3006
C13A C 0.6151(4) 0.3844(7) 0.2534(5)
H5A H 0.6318 0.3382 0.2773
C14A C 0.5756(4) 0.3663(7) 0.2059(5)
H6A H 0.5650 0.3089 0.1969
C15A C 0.5513(4) 0.4356(7) 0.1710(4)
C16A C 0.5220(5) 0.8953(9) 0.0992(6)
H7A H 0.5123 0.9503 0.0823
C17A C 0.4973(5) 0.8259(8) 0.0725(6)
H8A H 0.4711 0.8332 0.0371
C18A C 0.4876(4) 0.4991(7) 0.0866(4)
H9A H 0.4607 0.4916 0.0522
C19A C 0.5087(4) 0.4294(7) 0.1185(5)
H10A H 0.4954 0.3745 0.1065
C20A C 0.4443(4) 0.6636(7) 0.0185(4)
C21A C 0.4053(4) 0.6395(7) 0.0191(4)
H11A H 0.4059 0.6205 0.0545
C22A C 0.3647(4) 0.6424(7) -0.0315(4)
C23A C 0.3657(5) 0.6655(8) -0.0833(5)
H12A H 0.3390 0.6646 -0.1186
C24A C 0.4048(5) 0.6895(8) -0.0841(5)
H13A H 0.4047 0.7059 -0.1197
C25A C 0.4447(4) 0.6898(7) -0.0329(5)
H14A H 0.4715 0.7075 -0.0331
C26A C 0.3225(4) 0.6243(7) -0.0291(4)
C27A C 0.3188(4) 0.6456(7) 0.0208(5)
H15A H 0.3435 0.6702 0.0526
C28A C 0.2800(4) 0.6321(7) 0.0257(5)
C29A C 0.2436(4) 0.5963(9) -0.0220(5)
H16A H 0.2168 0.5848 -0.0197
C30A C 0.2472(5) 0.5777(9) -0.0728(5)
H17A H 0.2220 0.5562 -0.1055
C31A C 0.2851(4) 0.5893(9) -0.0768(5)
H18A H 0.2868 0.5742 -0.1114
C32A C 0.2786(4) 0.6509(7) 0.0805(5)
C33A C 0.3164(4) 0.6450(7) 0.1324(5)
H19A H 0.3425 0.6242 0.1314
N4A N 0.6808(3) 0.6665(6) 0.3154(4)
C34A C 0.7186(4) 0.6922(8) 0.3145(6)
H20A H 0.7179 0.7060 0.2783
C35A C 0.7578(4) 0.6992(10) 0.3636(6)
H21A H 0.7836 0.7184 0.3612
C36A C 0.2401(4) 0.6782(8) 0.0832(6)
H22A H 0.2128 0.6823 0.0489
loop_
_geom_bond_atom_site_label_1
_geom_bond_atom_site_label_2
_geom_bond_site_symmetry_1
_geom_bond_site_symmetry_2
Pt1 N1 1_555 1_555
C1 N1 1_555 1_555
N1 C2 1_555 1_555
C2 H1 1_555 1_555
C3 C2 1_555 1_555
H2 C3 1_555 1_555
C4 C3 1_555 1_555
H3 C4 1_555 1_555
C5 C1 1_555 1_555
C6 C1 1_555 1_555
N2 Pt1 1_555 1_555
C7 N2 1_555 1_555
C8 C7 1_555 1_555
C9 C8 1_555 1_555
C10 C6 1_555 1_555
C11 C7 1_555 1_555
N3 Pt1 1_555 1_555
C12 N3 1_555 1_555
H4 C12 1_555 1_555
C13 C12 1_555 1_555
H5 C13 1_555 1_555
C14 C13 1_555 1_555
H6 C14 1_555 1_555
C15 C11 1_555 1_555
C16 C5 1_555 1_555
H7 C16 1_555 1_555
C17 C10 1_555 1_555
H8 C17 1_555 1_555
C18 C8 1_555 1_555
H9 C18 1_555 1_555
C19 C15 1_555 1_555
H10 C19 1_555 1_555
C20 C9 1_555 1_555
C21 C20 1_555 1_555
H11 C21 1_555 1_555
C22 C21 1_555 1_555
C23 C22 1_555 1_555
H12 C23 1_555 1_555
C24 C23 1_555 1_555
H13 C24 1_555 1_555
C25 C20 1_555 1_555
H14 C25 1_555 1_555
C26 C22 1_555 1_555
C27 C26 1_555 1_555
H15 C27 1_555 1_555
C28 C27 1_555 1_555
C29 C28 1_555 1_555
H16 C29 1_555 1_555
C30 C29 1_555 1_555
H17 C30 1_555 1_555
C31 C26 1_555 1_555
H18 C31 1_555 1_555
C32 C28 1_555 1_555
C33 C32 1_555 1_555
H19 C33 1_555 1_555
N4 Pt1 1_555 1_555
C34 N4 1_555 1_555
H20 C34 1_555 1_555
C35 C34 1_555 1_555
H21 C35 1_555 1_555
C36 C32 1_555 1_555
H22 C36 1_555 1_555
O1 H23 1_555 1_555
O2 H24 1_555 1_555
C37 O1 1_555 1_555
C38 O2 1_555 1_555
C39 C38 1_555 1_555
H27 C39 1_555 1_555
P1 F1 1_555 1_555
F2 P1 1_555 1_555
F3 P1 1_555 1_555
F4 P1 1_555 1_555
F5 P1 1_555 1_555
F6 P1 1_555 1_555
F7 B1 1_555 1_555
F8 B1 1_555 1_555
F9 B1 1_555 1_555
F10 B1 1_555 1_555
S1 O3 1_555 1_555
C40 S1 1_555 1_555
H28 C40 1_555 1_555
H29 C40 1_555 1_555
H30 C40 1_555 1_555
C41 S1 1_555 1_555
H34 C41 1_555 1_555
H35 C41 1_555 1_555
H36 C41 1_555 1_555
S5 O7 1_555 1_555
C46 S5 1_555 1_555
H52 C46 1_555 1_555
H53 C46 1_555 1_555
H54 C46 1_555 1_555
C47 S5 1_555 1_555
H58 C47 1_555 1_555
H59 C47 1_555 1_555
H60 C47 1_555 1_555
S7 O8 1_555 1_555
C48 S7 1_555 1_555
H64 C48 1_555 1_555
H65 C48 1_555 1_555
H66 C48 1_555 1_555
C49 S7 1_555 1_555
H70 C49 1_555 1_555
H71 C49 1_555 1_555
H72 C49 1_555 1_555
C53 H85 1_555 1_555
C54 C53 1_555 1_555
H86 C54 1_555 1_555
C55 C54 1_555 1_555
H87 C55 1_555 1_555
C56 C55 1_555 1_555
H88 C56 1_555 1_555
C57 C56 1_555 1_555
H89 C57 1_555 1_555
C58 C53 1_555 1_555
H90 C58 1_555 1_555
Pt1A N1A 1_555 1_555
C1A N1A 1_555 1_555
N1A C2A 1_555 1_555
C2A H1A 1_555 1_555
C3A C2A 1_555 1_555
H2A C3A 1_555 1_555
C4A C3A 1_555 1_555
H3A C4A 1_555 1_555
C5A C1A 1_555 1_555
C6A C1A 1_555 1_555
N2A Pt1A 1_555 1_555
C7A N2A 1_555 1_555
C8A C7A 1_555 1_555
C9A C8A 1_555 1_555
C10A C6A 1_555 1_555
C11A C7A 1_555 1_555
N3A Pt1A 1_555 1_555
C12A N3A 1_555 1_555
H4A C12A 1_555 1_555
C13A C12A 1_555 1_555
H5A C13A 1_555 1_555
C14A C13A 1_555 1_555
H6A C14A 1_555 1_555
C15A C11A 1_555 1_555
C16A C5A 1_555 1_555
H7A C16A 1_555 1_555
C17A C10A 1_555 1_555
H8A C17A 1_555 1_555
C18A C8A 1_555 1_555
H9A C18A 1_555 1_555
C19A C15A 1_555 1_555
H10A C19A 1_555 1_555
C20A C9A 1_555 1_555
C21A C20A 1_555 1_555
H11A C21A 1_555 1_555
C22A C21A 1_555 1_555
C23A C22A 1_555 1_555
H12A C23A 1_555 1_555
C24A C23A 1_555 1_555
H13A C24A 1_555 1_555
C25A C20A 1_555 1_555
H14A C25A 1_555 1_555
C26A C22A 1_555 1_555
C27A C26A 1_555 1_555
H15A C27A 1_555 1_555
C28A C27A 1_555 1_555
C29A C28A 1_555 1_555
H16A C29A 1_555 1_555
C30A C29A 1_555 1_555
H17A C30A 1_555 1_555
C31A C26A 1_555 1_555
H18A C31A 1_555 1_555
C32A C28A 1_555 1_555
C33A N4 1_555 1_555
H19A C33A 1_555 1_555
N4A C33 1_555 1_555
C34A N4A 1_555 1_555
H20A C34A 1_555 1_555
C35A C36 1_555 1_555
H21A C35A 1_555 1_555
C36A C35 1_555 1_555
H22A C36A 1_555 1_555
O1A H23A 1_555 1_555
O2A H24A 1_555 1_555
C37A C37 1_555 1_555
C38A O2A 1_555 1_555
C39A C39 1_555 1_555
H27A C39A 1_555 1_555
C4 C5 1_555 1_555
C6 N2 1_555 1_555
C9 C10 1_555 1_555
C11 N3 1_555 1_555
C14 C15 1_555 1_555
C16 C17 1_555 1_555
C18 C19 1_555 1_555
C24 C25 1_555 1_555
C30 C31 1_555 1_555
C37 C38 1_555 1_555
C57 C58 1_555 1_555
Pt1A N4A 1_555 1_555
C4A C5A 1_555 1_555
C6A N2A 1_555 1_555
C9A C10A 1_555 1_555
C11A N3A 1_555 1_555
C14A C15A 1_555 1_555
C16A C17A 1_555 1_555
C18A C19A 1_555 1_555
C24A C25A 1_555 1_555
C30A C31A 1_555 1_555
C32A C33A 1_555 1_555
C32A C36A 1_555 1_555
C34A C35A 1_555 1_555
O1A C37A 1_555 1_555
C37A C38A 1_555 1_555
C38A C39A 1_555 1_555

#END
