
#######################################################################
#
#                 Cambridge Crystallographic Data Centre
#                                CCDC 
#
#######################################################################
#
# If this CIF has been generated from an entry in the Cambridge 
# Structural Database, then it will include bibliographic, chemical, 
# crystal, experimental, refinement or atomic coordinate data resulting 
# from the CCDC's data processing and validation procedures.
#
#######################################################################

data_NAPQEC
_chemical_formula_moiety         'C72 H72 N4 O8 Ru4 4+,4(C1 F3 O3 S1 1-)'
_chemical_name_systematic        
"bis(\m~2~-oxalato)-bis(\m~2~-4,4'-buta-1,3-diyne-1,4-diyldipyridine)-tetrakis(\h^6^-1-isopropyl-4-methylbenzene)-tetra-ruthenium(ii) tetrakis(trifluoromethanesulfonate) unknown solvate"
_symmetry_cell_setting           monoclinic
_symmetry_space_group_name_H-M   'P 21/c'
_symmetry_Int_Tables_number      14
_space_group_name_Hall           '-P 2ybc'
loop_
_symmetry_equiv_pos_site_id
_symmetry_equiv_pos_as_xyz
1 x,y,z
2 -x,1/2+y,1/2-z
3 -x,-y,-z
4 x,1/2-y,1/2+z
_cell_length_a                   16.071(3)
_cell_length_b                   11.221(2)
_cell_length_c                   25.045(5)
_cell_angle_alpha                90
_cell_angle_beta                 98.29(3)
_cell_angle_gamma                90
_cell_volume                     4469.24
_exptl_crystal_colour            'dark red'
_exptl_crystal_description       needle
_cell_formula_units_Z            2
loop_
_atom_site_label
_atom_site_type_symbol
_atom_site_fract_x
_atom_site_fract_y
_atom_site_fract_z
Ru1 Ru 0.03250(7) -0.03457(8) 0.30243(3)
Ru2 Ru 0.73311(8) 0.02960(18) 0.83515(4)
O1 O 0.0989(5) -0.1494(7) 0.2582(3)
O2 O 0.0892(6) 0.0845(9) 0.2569(3)
O3 O 0.1870(5) 0.0854(9) 0.2017(3)
O4 O 0.1963(6) -0.1500(10) 0.2012(3)
C1 C 0.1478(10) -0.0973(17) 0.2280(5)
C2 C 0.1335(3) 0.0422(5) 0.23017(17)
N1 N 0.1494(3) -0.0218(5) 0.35430(17)
C3 C 0.1701(3) 0.0878(5) 0.37842(17)
H1 H 0.1377 0.1564 0.3671
C4 C 0.2384(3) 0.0972(5) 0.41913(17)
H2 H 0.2526 0.1721 0.4356
C5 C 0.2859(3) -0.0032(5) 0.43572(17)
C6 C 0.2652(3) -0.1128(5) 0.41160(17)
H3 H 0.2977 -0.1814 0.4229
C7 C 0.1969(3) -0.1222(5) 0.37089(17)
H4 H 0.1828 -0.1971 0.3544
C8 C 0.3495(11) 0.0020(16) 0.4824(5)
C9 C 0.4022(3) 0.0132(7) 0.5232(2)
N2 N 0.6554(3) 0.0266(7) 0.7606(2)
C10 C 0.6327(3) -0.0818(7) 0.7358(2)
H5 H 0.6507 -0.1543 0.7533
C11 C 0.5836(3) -0.0840(7) 0.6853(2)
H6 H 0.5681 -0.1581 0.6684
C12 C 0.5573(3) 0.0221(7) 0.6597(2)
C13 C 0.5800(3) 0.1305(7) 0.6845(2)
H7 H 0.5598 0.2036 0.6684
C14 C 0.6334(3) 0.1285(7) 0.7338(2)
H8 H 0.6549 0.2018 0.7490
C15 C 0.5042(10) 0.0201(16) 0.6100(6)
C16 C 0.4637(3) 0.0194(4) 0.56496(16)
C17 C -0.0383(3) -0.0824(4) 0.36630(16)
C18 C -0.0599(3) -0.1599(4) 0.32324(16)
H9 H -0.0560 -0.2435 0.3288
C19 C -0.0872(3) -0.1150(4) 0.27199(16)
H10 H -0.1020 -0.1679 0.2426
C20 C -0.0929(3) 0.0075(4) 0.26379(16)
C21 C -0.0713(3) 0.0850(4) 0.30685(16)
H11 H -0.0752 0.1686 0.3013
C22 C -0.0440(3) 0.0401(4) 0.35811(16)
H12 H -0.0292 0.0930 0.3875
C23 C -0.0051(11) -0.1257(11) 0.4240(4)
H13 H 0.0448 -0.0760 0.4382
C24 C -0.0741(11) -0.1026(14) 0.4594(5)
H14 H -0.1163 -0.1449 0.4486
H15 H -0.0898 -0.0200 0.4571
H16 H -0.0532 -0.1224 0.4962
C25 C 0.0221(12) -0.2584(12) 0.4275(5)
H17 H -0.0201 -0.3020 0.4186
H18 H 0.0467 -0.2766 0.4638
H19 H 0.0627 -0.2724 0.4036
C26 C -0.1203(5) 0.0593(8) 0.2077(2)
H20 H -0.1691 0.0357 0.1959
H21 H -0.0824 0.0342 0.1835
H22 H -0.1200 0.1447 0.2100
C27 C 0.7226(5) 0.1549(8) 0.9010(2)
C28 C 0.7874(5) 0.0770(8) 0.9199(2)
H23 H 0.8408 0.1073 0.9351
C29 C 0.7742(5) -0.0454(8) 0.9166(2)
H24 H 0.8185 -0.0986 0.9295
C30 C 0.6961(5) -0.0898(8) 0.8944(2)
C31 C 0.6313(5) -0.0119(8) 0.8755(2)
H25 H 0.5779 -0.0422 0.8603
C32 C 0.6445(5) 0.1105(8) 0.8788(2)
H26 H 0.6002 0.1638 0.8659
C33 C 0.7519(18) 0.2783(18) 0.8998(10)
H27 H 0.8055 0.2801 0.8839
C34 C 0.686(2) 0.346(3) 0.8635(13)
H28 H 0.6450 0.3002 0.8534
H29 H 0.7096 0.3736 0.8328
H30 H 0.6672 0.4123 0.8827
C35 C 0.769(2) 0.320(4) 0.9579(11)
H31 H 0.7374 0.3774 0.9624
H32 H 0.8269 0.3455 0.9654
H33 H 0.7600 0.2559 0.9816
C36 C 0.6944(15) -0.2261(15) 0.8869(7)
H34 H 0.7399 -0.2487 0.8774
H35 H 0.6486 -0.2477 0.8596
H36 H 0.6873 -0.2641 0.9203
Ru1B Ru 0.96750(7) 0.03457(8) 0.69757(3)
Ru2B Ru 0.26689(8) -0.02960(18) 0.16485(4)
O1B O 0.9011(5) 0.1494(7) 0.7418(3)
O2B O 0.9108(6) -0.0845(9) 0.7431(3)
O3B O 0.8130(5) -0.0854(9) 0.7983(3)
O4B O 0.8037(6) 0.1500(10) 0.7988(3)
C1B C 0.8522(10) 0.0973(17) 0.7720(5)
C2B C 0.8665(3) -0.0422(5) 0.76983(17)
N1B N 0.8506(3) 0.0218(5) 0.64570(17)
C3B C 0.8299(3) -0.0878(5) 0.62158(17)
H1B H 0.8623 -0.1564 0.6329
C4B C 0.7616(3) -0.0972(5) 0.58087(17)
H2B H 0.7474 -0.1721 0.5644
C5B C 0.7141(3) 0.0032(5) 0.56428(17)
C6B C 0.7348(3) 0.1128(5) 0.58840(17)
H3B H 0.7023 0.1814 0.5771
C7B C 0.8031(3) 0.1222(5) 0.62911(17)
H4B H 0.8172 0.1971 0.6456
C8B C 0.6505(11) -0.0020(16) 0.5176(5)
C9B C 0.5978(3) -0.0132(7) 0.4768(2)
N2B N 0.3446(3) -0.0266(7) 0.2394(2)
C10B C 0.3673(3) 0.0818(7) 0.2642(2)
H5B H 0.3493 0.1543 0.2467
C11B C 0.4164(3) 0.0840(7) 0.3147(2)
H6B H 0.4319 0.1581 0.3316
C12B C 0.4427(3) -0.0221(7) 0.3403(2)
C13B C 0.4200(3) -0.1305(7) 0.3155(2)
H7B H 0.4402 -0.2036 0.3316
C14B C 0.3666(3) -0.1285(7) 0.2662(2)
H8B H 0.3451 -0.2018 0.2510
C15B C 0.4958(10) -0.0201(16) 0.3900(6)
C16B C 0.5363(3) -0.0194(4) 0.43504(16)
C17B C 1.0383(3) 0.0824(4) 0.63370(16)
C18B C 1.0599(3) 0.1599(4) 0.67676(16)
H9B H 1.0560 0.2435 0.6712
C19B C 1.0872(3) 0.1150(4) 0.72801(16)
H10B H 1.1020 0.1679 0.7574
C20B C 1.0929(3) -0.0075(4) 0.73621(16)
C21B C 1.0713(3) -0.0850(4) 0.69315(16)
H11B H 1.0752 -0.1686 0.6987
C22B C 1.0440(3) -0.0401(4) 0.64189(16)
H12B H 1.0292 -0.0930 0.6125
C23B C 1.0051(11) 0.1257(11) 0.5760(4)
H13B H 0.9552 0.0760 0.5618
C24B C 1.0741(11) 0.1026(14) 0.5406(5)
H14B H 1.1163 0.1449 0.5514
H15B H 1.0898 0.0200 0.5429
H16B H 1.0532 0.1224 0.5038
C25B C 0.9779(12) 0.2584(12) 0.5725(5)
H17B H 1.0201 0.3020 0.5814
H18B H 0.9533 0.2766 0.5362
H19B H 0.9373 0.2724 0.5964
C26B C 1.1203(5) -0.0593(8) 0.7923(2)
H20B H 1.1691 -0.0357 0.8041
H21B H 1.0824 -0.0342 0.8165
H22B H 1.1200 -0.1447 0.7900
C27B C 0.2774(5) -0.1549(8) 0.0990(2)
C28B C 0.2126(5) -0.0770(8) 0.0801(2)
H23B H 0.1592 -0.1073 0.0649
C29B C 0.2258(5) 0.0454(8) 0.0834(2)
H24B H 0.1815 0.0986 0.0705
C30B C 0.3039(5) 0.0898(8) 0.1056(2)
C31B C 0.3687(5) 0.0119(8) 0.1245(2)
H25B H 0.4221 0.0422 0.1397
C32B C 0.3555(5) -0.1105(8) 0.1212(2)
H26B H 0.3998 -0.1638 0.1341
C33B C 0.2481(18) -0.2783(18) 0.1002(10)
H27B H 0.1945 -0.2801 0.1161
C34B C 0.314(2) -0.346(3) 0.1365(13)
H28B H 0.3550 -0.3002 0.1466
H29B H 0.2904 -0.3736 0.1672
H30B H 0.3328 -0.4123 0.1173
C35B C 0.231(2) -0.320(4) 0.0421(11)
H31B H 0.2626 -0.3774 0.0376
H32B H 0.1731 -0.3455 0.0346
H33B H 0.2400 -0.2559 0.0184
C36B C 0.3056(15) 0.2261(15) 0.1131(7)
H34B H 0.2601 0.2487 0.1226
H35B H 0.3514 0.2477 0.1404
H36B H 0.3127 0.2641 0.0797
S1 S 0.9862(2) 0.8684(3) 0.10546(11)
O5 O 0.9459(5) 0.8098(7) 0.1457(2)
O6 O 1.0318(5) 0.9755(7) 0.1227(3)
O7 O 1.0292(6) 0.7858(8) 0.0736(3)
C37 C 0.8992(9) 0.9189(12) 0.0580(4)
F1 F 0.9241(4) 0.9756(7) 0.0157(2)
F2 F 0.8492(5) 0.8329(7) 0.0387(2)
F3 F 0.8523(5) 0.9991(8) 0.0786(3)
loop_
_geom_bond_atom_site_label_1
_geom_bond_atom_site_label_2
_geom_bond_site_symmetry_1
_geom_bond_site_symmetry_2
Ru1 O1 1_555 1_555
Ru2 N2 1_555 1_555
O1 C1 1_555 1_555
O2 Ru1 1_555 1_555
O3 C2 1_555 1_555
O4 C1 1_555 1_555
C1 C2 1_555 1_555
C2 O2 1_555 1_555
N1 Ru1 1_555 1_555
C3 N1 1_555 1_555
H1 C3 1_555 1_555
C4 C3 1_555 1_555
H2 C4 1_555 1_555
C5 C4 1_555 1_555
C6 C5 1_555 1_555
H3 C6 1_555 1_555
C7 N1 1_555 1_555
H4 C7 1_555 1_555
C8 C5 1_555 1_555
C9 C8 1_555 1_555
N2 C10 1_555 1_555
C10 H5 1_555 1_555
C11 C10 1_555 1_555
H6 C11 1_555 1_555
C12 C11 1_555 1_555
C13 C12 1_555 1_555
H7 C13 1_555 1_555
C14 N2 1_555 1_555
H8 C14 1_555 1_555
C15 C12 1_555 1_555
C16 C9 1_555 1_555
C17 Ru1 1_555 1_555
C18 Ru1 1_555 1_555
H9 C18 1_555 1_555
C19 Ru1 1_555 1_555
H10 C19 1_555 1_555
C20 Ru1 1_555 1_555
C21 Ru1 1_555 1_555
H11 C21 1_555 1_555
C22 Ru1 1_555 1_555
H12 C22 1_555 1_555
C23 C17 1_555 1_555
H13 C23 1_555 1_555
C24 C23 1_555 1_555
H14 C24 1_555 1_555
H15 C24 1_555 1_555
H16 C24 1_555 1_555
C25 C23 1_555 1_555
H17 C25 1_555 1_555
H18 C25 1_555 1_555
H19 C25 1_555 1_555
C26 C20 1_555 1_555
H20 C26 1_555 1_555
H21 C26 1_555 1_555
H22 C26 1_555 1_555
C27 Ru2 1_555 1_555
C28 Ru2 1_555 1_555
H23 C28 1_555 1_555
C29 Ru2 1_555 1_555
H24 C29 1_555 1_555
C30 Ru2 1_555 1_555
C31 Ru2 1_555 1_555
H25 C31 1_555 1_555
C32 Ru2 1_555 1_555
H26 C32 1_555 1_555
C33 C27 1_555 1_555
H27 C33 1_555 1_555
C34 C33 1_555 1_555
H28 C34 1_555 1_555
H29 C34 1_555 1_555
H30 C34 1_555 1_555
C35 C33 1_555 1_555
H31 C35 1_555 1_555
H32 C35 1_555 1_555
H33 C35 1_555 1_555
C36 C30 1_555 1_555
H34 C36 1_555 1_555
H35 C36 1_555 1_555
H36 C36 1_555 1_555
S1 O5 1_555 1_555
O6 S1 1_555 1_555
O7 S1 1_555 1_555
C37 S1 1_555 1_555
F1 C37 1_555 1_555
F2 C37 1_555 1_555
F3 C37 1_555 1_555
Ru1B O1B 1_555 1_555
Ru2B O3 1_555 1_555
O1B C1B 1_555 1_555
O2B Ru1B 1_555 1_555
O3B Ru2 1_555 1_555
O4B Ru2 1_555 1_555
C1B O4B 1_555 1_555
C2B O2B 1_555 1_555
N1B Ru1B 1_555 1_555
C3B N1B 1_555 1_555
H1B C3B 1_555 1_555
C4B C3B 1_555 1_555
H2B C4B 1_555 1_555
C5B C4B 1_555 1_555
C6B C5B 1_555 1_555
H3B C6B 1_555 1_555
C7B N1B 1_555 1_555
H4B C7B 1_555 1_555
C8B C5B 1_555 1_555
C9B C8B 1_555 1_555
N2B Ru2B 1_555 1_555
C10B N2B 1_555 1_555
H5B C10B 1_555 1_555
C11B C10B 1_555 1_555
H6B C11B 1_555 1_555
C12B C11B 1_555 1_555
C13B C12B 1_555 1_555
H7B C13B 1_555 1_555
C14B N2B 1_555 1_555
H8B C14B 1_555 1_555
C15B C12B 1_555 1_555
C16B C9B 1_555 1_555
C17B Ru1B 1_555 1_555
C18B Ru1B 1_555 1_555
H9B C18B 1_555 1_555
C19B Ru1B 1_555 1_555
H10B C19B 1_555 1_555
C20B Ru1B 1_555 1_555
C21B Ru1B 1_555 1_555
H11B C21B 1_555 1_555
C22B Ru1B 1_555 1_555
H12B C22B 1_555 1_555
C23B C17B 1_555 1_555
H13B C23B 1_555 1_555
C24B C23B 1_555 1_555
H14B C24B 1_555 1_555
H15B C24B 1_555 1_555
H16B C24B 1_555 1_555
C25B C23B 1_555 1_555
H17B C25B 1_555 1_555
H18B C25B 1_555 1_555
H19B C25B 1_555 1_555
C26B C20B 1_555 1_555
H20B C26B 1_555 1_555
H21B C26B 1_555 1_555
H22B C26B 1_555 1_555
C27B Ru2B 1_555 1_555
C28B Ru2B 1_555 1_555
H23B C28B 1_555 1_555
C29B Ru2B 1_555 1_555
H24B C29B 1_555 1_555
C30B Ru2B 1_555 1_555
C31B Ru2B 1_555 1_555
H25B C31B 1_555 1_555
C32B Ru2B 1_555 1_555
H26B C32B 1_555 1_555
C33B C27B 1_555 1_555
H27B C33B 1_555 1_555
C34B C33B 1_555 1_555
H28B C34B 1_555 1_555
H29B C34B 1_555 1_555
H30B C34B 1_555 1_555
C35B C33B 1_555 1_555
H31B C35B 1_555 1_555
H32B C35B 1_555 1_555
H33B C35B 1_555 1_555
C36B C30B 1_555 1_555
H34B C36B 1_555 1_555
H35B C36B 1_555 1_555
H36B C36B 1_555 1_555
O4 Ru2B 1_555 1_555
C6 C7 1_555 1_555
C13 C14 1_555 1_555
C15 C16 1_555 1_555
C17 C18 1_555 1_555
C17 C22 1_555 1_555
C18 C19 1_555 1_555
C19 C20 1_555 1_555
C20 C21 1_555 1_555
C21 C22 1_555 1_555
C27 C28 1_555 1_555
C27 C32 1_555 1_555
C28 C29 1_555 1_555
C29 C30 1_555 1_555
C30 C31 1_555 1_555
C31 C32 1_555 1_555
O3B C2B 1_555 1_555
C1B C2B 1_555 1_555
C6B C7B 1_555 1_555
C13B C14B 1_555 1_555
C15B C16B 1_555 1_555
C17B C18B 1_555 1_555
C17B C22B 1_555 1_555
C18B C19B 1_555 1_555
C19B C20B 1_555 1_555
C20B C21B 1_555 1_555
C21B C22B 1_555 1_555
C27B C28B 1_555 1_555
C27B C32B 1_555 1_555
C28B C29B 1_555 1_555
C29B C30B 1_555 1_555
C30B C31B 1_555 1_555
C31B C32B 1_555 1_555

#END
