
#######################################################################
#
#                 Cambridge Crystallographic Data Centre
#                                CCDC 
#
#######################################################################
#
# If this CIF has been generated from an entry in the Cambridge 
# Structural Database, then it will include bibliographic, chemical, 
# crystal, experimental, refinement or atomic coordinate data resulting 
# from the CCDC's data processing and validation procedures.
#
#######################################################################

data_NEKYUY01
_chemical_formula_moiety         
'2(C36 H28 Ag4 N12 4+),F6 Si1 2-,6(B1 F4 1-),8(C1 H3 N1 O2)'
_chemical_name_systematic        
'bis(tetrakis(\m~2~-4-(2-Pyridyl)pyrimidine)-tetra-silver(i)) hexafluorosilicate clathrate hexakis(tetrafluoroborate) nitromethane solvate'
_symmetry_cell_setting           triclinic
_symmetry_space_group_name_H-M   'P -1'
_symmetry_Int_Tables_number      2
_space_group_name_Hall           '-P 1'
loop_
_symmetry_equiv_pos_site_id
_symmetry_equiv_pos_as_xyz
1 x,y,z
2 -x,-y,-z
_cell_length_a                   12.269(5)
_cell_length_b                   14.970(6)
_cell_length_c                   15.408(6)
_cell_angle_alpha                93.424(4)
_cell_angle_beta                 103.894(4)
_cell_angle_gamma                100.832(5)
_cell_volume                     2681.83
_exptl_crystal_colour            colorless
_exptl_crystal_description       Block
_cell_formula_units_Z            1
loop_
_atom_site_label
_atom_site_type_symbol
_atom_site_fract_x
_atom_site_fract_y
_atom_site_fract_z
Ag1 Ag 0.40335(3) 0.76521(2) 0.59309(2)
Ag2 Ag 0.73940(3) 0.66153(2) 0.37733(2)
Ag3 Ag 0.81588(3) 0.32089(2) 0.59281(2)
Ag4 Ag 0.47633(3) 0.42899(2) 0.80054(2)
N1 N 0.5085(3) 0.7962(2) 0.4891(2)
N2 N 0.6422(3) 0.7614(2) 0.4101(2)
N3 N 0.3411(3) 0.8802(2) 0.5151(2)
N4 N 0.8205(3) 0.5330(2) 0.4090(2)
N5 N 0.8497(3) 0.4065(2) 0.4905(2)
N6 N 0.8380(3) 0.6352(2) 0.2712(2)
N7 N 0.7187(3) 0.2984(2) 0.7006(2)
N8 N 0.5862(3) 0.3370(2) 0.7779(2)
N9 N 0.8821(3) 0.2085(2) 0.6755(2)
N10 N 0.4067(3) 0.5594(2) 0.7827(2)
N11 N 0.3708(3) 0.6844(2) 0.7003(2)
N12 N 0.3867(3) 0.4518(2) 0.9157(2)
C1 C 0.5871(3) 0.7495(3) 0.4753(3)
C2 C 0.6180(4) 0.8275(3) 0.3580(3)
C3 C 0.5385(4) 0.8786(3) 0.3676(3)
C4 C 0.4825(3) 0.8607(3) 0.4347(3)
C5 C 0.3915(3) 0.9079(3) 0.4500(3)
C6 C 0.3586(3) 0.9768(3) 0.3994(3)
C7 C 0.2721(3) 1.0176(3) 0.4160(3)
C8 C 0.2219(4) 0.9902(3) 0.4831(3)
C9 C 0.2589(4) 0.9217(3) 0.5310(3)
C10 C 0.8067(3) 0.4815(3) 0.4747(3)
C11 C 0.9115(4) 0.3822(3) 0.4350(3)
C12 C 0.9290(4) 0.4314(3) 0.3654(3)
C13 C 0.8823(3) 0.5090(3) 0.3531(3)
C14 C 0.8943(3) 0.5660(3) 0.2794(3)
C15 C 0.9577(4) 0.5462(3) 0.2195(3)
C16 C 0.9626(4) 0.5986(3) 0.1493(3)
C17 C 0.9056(4) 0.6700(3) 0.1414(3)
C18 C 0.8452(4) 0.6854(3) 0.2029(3)
C19 C 0.6383(3) 0.3443(3) 0.7113(3)
C20 C 0.6182(4) 0.2786(3) 0.8383(3)
C21 C 0.6999(4) 0.2298(3) 0.8323(3)
C22 C 0.7511(3) 0.2414(3) 0.7616(3)
C23 C 0.8416(3) 0.1922(3) 0.7484(3)
C24 C 0.8825(4) 0.1331(3) 0.8084(3)
C25 C 0.9658(5) 0.0884(3) 0.7921(4)
C26 C 1.0053(4) 0.1031(3) 0.7170(4)
C27 C 0.9615(4) 0.1636(3) 0.6602(3)
C28 C 0.4155(3) 0.6100(3) 0.7151(3)
C29 C 0.3143(4) 0.7092(3) 0.7582(3)
C30 C 0.3044(4) 0.6623(3) 0.8317(3)
C31 C 0.3508(3) 0.5854(3) 0.8415(3)
C32 C 0.3402(3) 0.5267(3) 0.9151(3)
C33 C 0.2833(3) 0.5474(3) 0.9793(3)
C34 C 0.2753(4) 0.4895(3) 1.0457(3)
C35 C 0.3234(4) 0.4135(3) 1.0462(3)
C36 C 0.3774(4) 0.3971(3) 0.9800(3)
H1 H 0.6048 0.7057 0.5137
H2 H 0.6567 0.8393 0.3135
H3 H 0.5229 0.9236 0.3302
H4 H 0.3944 0.9954 0.3548
H5 H 0.2483 1.0630 0.3819
H6 H 0.1644 1.0172 0.4961
H7 H 0.2250 0.9033 0.5767
H8 H 0.7638 0.4990 0.5126
H9 H 0.9433 0.3307 0.4441
H10 H 0.9711 0.4133 0.3272
H11 H 0.9962 0.4981 0.2268
H12 H 1.0035 0.5861 0.1081
H13 H 0.9082 0.7069 0.0952
H14 H 0.8068 0.7335 0.1969
H15 H 0.6173 0.3841 0.6692
H16 H 0.5833 0.2715 0.8855
H17 H 0.7207 0.1899 0.8743
H18 H 0.8544 0.1238 0.8588
H19 H 0.9947 0.0489 0.8317
H20 H 1.0604 0.0730 0.7043
H21 H 0.9886 0.1735 0.6094
H22 H 0.4557 0.5922 0.6754
H23 H 0.2804 0.7596 0.7492
H24 H 0.2676 0.6821 0.8731
H25 H 0.2512 0.5990 0.9777
H26 H 0.2379 0.5020 1.0893
H27 H 0.3195 0.3740 1.0903
H28 H 0.4090 0.3453 0.9800
Si1 Si 0.5000 0.5000 0.5000
F13 F 0.4303(2) 0.5858(2) 0.5115(2)
F14 F 0.4771(2) 0.4631(2) 0.5970(2)
F15 F 0.6246(2) 0.5685(2) 0.5560(2)
F13A F 0.5697(2) 0.4142(2) 0.4885(2)
F14A F 0.5229(2) 0.5369(2) 0.4030(2)
F15A F 0.3754(2) 0.4315(2) 0.4440(2)
F1 F -0.0520(4) 0.7261(3) 0.9257(3)
F2 F 0.0526(3) 0.6729(2) 0.8398(2)
F3 F 0.1175(4) 0.6982(4) 0.9874(3)
F4 F -0.0250(5) 0.5836(3) 0.9280(3)
B1 B 0.0215(5) 0.6708(4) 0.9209(4)
F5 F 0.5432(5) 0.8466(6) 0.0604(5)
F6 F 0.6657(8) 0.9240(3) 0.1838(5)
F7 F 0.7284(4) 0.8647(4) 0.0772(3)
F8 F 0.6354(3) 0.7763(2) 0.1622(2)
B2 B 0.6441(6) 0.8543(5) 0.1193(5)
F9 F 0.9122(3) 0.8529(2) 0.6534(2)
F10 F 1.0793(3) 0.8118(2) 0.6480(2)
F11 F 0.9274(3) 0.7713(3) 0.5296(2)
F12 F 1.0152(3) 0.9198(3) 0.5646(3)
B3 B 0.9826(5) 0.8393(4) 0.5987(4)
O1 O 0.6502(4) 0.8299(4) 0.7249(3)
O2 O 0.6158(4) 0.7639(3) 0.8367(3)
N13 N 0.6774(4) 0.8165(3) 0.8047(3)
C37 C 0.7865(6) 0.8684(5) 0.8637(6)
H29 H 0.8000 0.8446 0.9209
H30 H 0.7826 0.9317 0.8720
H31 H 0.8480 0.8629 0.8366
O3 O 0.4191(4) 0.9187(3) 0.7434(2)
O4 O 0.5847(4) 1.0068(3) 0.8003(3)
N14 N 0.4994(4) 0.9526(3) 0.8072(3)
C38 C 0.4974(6) 0.9286(4) 0.8979(3)
H32 H 0.5647 0.9632 0.9406
H33 H 0.4962 0.8644 0.8999
H34 H 0.4301 0.9423 0.9124
O5 O 0.2469(5) 0.9071(4) 0.9894(4)
O6 O 0.0874(5) 0.9492(4) 0.9681(3)
N15 N 0.1602(5) 0.9196(3) 0.9409(3)
C39 C 0.1387(5) 0.8952(4) 0.8447(3)
H35 H 0.0620 0.9001 0.8153
H36 H 0.1475 0.8335 0.8337
H37 H 0.1925 0.9360 0.8217
O7 O 0.6960(4) 0.5716(3) 0.7578(2)
O8 O 0.8138(3) 0.5196(2) 0.6959(3)
N16 N 0.7702(3) 0.5804(3) 0.7169(3)
C40 C 0.8120(5) 0.6730(3) 0.6922(4)
H38 H 0.8795 0.7035 0.7374
H39 H 0.7534 0.7080 0.6882
H40 H 0.8302 0.6671 0.6352
loop_
_geom_bond_atom_site_label_1
_geom_bond_atom_site_label_2
_geom_bond_site_symmetry_1
_geom_bond_site_symmetry_2
Ag1 N1 1_555 1_555
Ag2 N2 1_555 1_555
Ag3 N5 1_555 1_555
Ag4 N8 1_555 1_555
Si1 F13 1_555 1_555
F1 B1 1_555 1_555
F2 B1 1_555 1_555
F3 B1 1_555 1_555
F4 B1 1_555 1_555
F5 B2 1_555 1_555
F6 B2 1_555 1_555
F7 B2 1_555 1_555
F8 B2 1_555 1_555
F9 B3 1_555 1_555
F10 B3 1_555 1_555
F11 B3 1_555 1_555
F12 B3 1_555 1_555
F14 Si1 1_555 1_555
F15 Si1 1_555 1_555
O1 N13 1_555 1_555
O2 N13 1_555 1_555
O3 N14 1_555 1_555
O4 N14 1_555 1_555
O5 N15 1_555 1_555
O6 N15 1_555 1_555
O7 N16 1_555 1_555
O8 N16 1_555 1_555
N1 C1 1_555 1_555
N2 C1 1_555 1_555
N3 Ag1 1_555 1_555
N4 Ag2 1_555 1_555
N5 C10 1_555 1_555
N6 Ag2 1_555 1_555
N7 Ag3 1_555 1_555
N8 C19 1_555 1_555
N9 Ag3 1_555 1_555
N10 Ag4 1_555 1_555
N11 Ag1 1_555 1_555
N12 Ag4 1_555 1_555
N13 C37 1_555 1_555
N14 C38 1_555 1_555
N15 C39 1_555 1_555
N16 C40 1_555 1_555
C1 H1 1_555 1_555
C2 N2 1_555 1_555
C3 C2 1_555 1_555
C4 N1 1_555 1_555
C5 N3 1_555 1_555
C6 C5 1_555 1_555
C7 C6 1_555 1_555
C8 C7 1_555 1_555
C9 N3 1_555 1_555
C10 N4 1_555 1_555
C11 N5 1_555 1_555
C12 C11 1_555 1_555
C13 N4 1_555 1_555
C14 N6 1_555 1_555
C15 C14 1_555 1_555
C16 C15 1_555 1_555
C17 C16 1_555 1_555
C18 N6 1_555 1_555
C19 N7 1_555 1_555
C20 N8 1_555 1_555
C21 C20 1_555 1_555
C22 N7 1_555 1_555
C23 N9 1_555 1_555
C24 C23 1_555 1_555
C25 C24 1_555 1_555
C26 C25 1_555 1_555
C27 N9 1_555 1_555
C28 N10 1_555 1_555
C29 N11 1_555 1_555
C30 C29 1_555 1_555
C31 N10 1_555 1_555
C32 N12 1_555 1_555
C33 C32 1_555 1_555
C34 C33 1_555 1_555
C35 C34 1_555 1_555
C36 N12 1_555 1_555
C37 H29 1_555 1_555
C38 H32 1_555 1_555
C39 H35 1_555 1_555
C40 H38 1_555 1_555
H2 C2 1_555 1_555
H3 C3 1_555 1_555
H4 C6 1_555 1_555
H5 C7 1_555 1_555
H6 C8 1_555 1_555
H7 C9 1_555 1_555
H8 C10 1_555 1_555
H9 C11 1_555 1_555
H10 C12 1_555 1_555
H11 C15 1_555 1_555
H12 C16 1_555 1_555
H13 C17 1_555 1_555
H14 C18 1_555 1_555
H15 C19 1_555 1_555
H16 C20 1_555 1_555
H17 C21 1_555 1_555
H18 C24 1_555 1_555
H19 C25 1_555 1_555
H20 C26 1_555 1_555
H21 C27 1_555 1_555
H22 C28 1_555 1_555
H23 C29 1_555 1_555
H24 C30 1_555 1_555
H25 C33 1_555 1_555
H26 C34 1_555 1_555
H27 C35 1_555 1_555
H28 C36 1_555 1_555
H30 C37 1_555 1_555
H31 C37 1_555 1_555
H33 C38 1_555 1_555
H34 C38 1_555 1_555
H36 C39 1_555 1_555
H37 C39 1_555 1_555
H39 C40 1_555 1_555
H40 C40 1_555 1_555
F13A Si1 1_555 1_555
F14A Si1 1_555 1_555
F15A Si1 1_555 1_555
N11 C28 1_555 1_555
C3 C4 1_555 1_555
C4 C5 1_555 1_555
C8 C9 1_555 1_555
C12 C13 1_555 1_555
C13 C14 1_555 1_555
C17 C18 1_555 1_555
C21 C22 1_555 1_555
C22 C23 1_555 1_555
C26 C27 1_555 1_555
C30 C31 1_555 1_555
C31 C32 1_555 1_555
C35 C36 1_555 1_555

#END
