
#######################################################################
#
#                 Cambridge Crystallographic Data Centre
#                                CCDC 
#
#######################################################################
#
# If this CIF has been generated from an entry in the Cambridge 
# Structural Database, then it will include bibliographic, chemical, 
# crystal, experimental, refinement or atomic coordinate data resulting 
# from the CCDC's data processing and validation procedures.
#
#######################################################################

data_NEKZEJ
_chemical_formula_moiety         
'2(C36 H28 Ag4 N12 4+),F6 Sn1 2-,6(B1 F4 1-),8(C1 H3 N1 O2)'
_chemical_name_systematic        
'bis(tetrakis(\m~2~-4-(2-Pyridyl)pyrimidine)-tetra-silver(i)) hexafluorostannate clathrate hexakis(tetrafluoroborate) nitromethane solvate'
_symmetry_cell_setting           triclinic
_symmetry_space_group_name_H-M   'P -1'
_symmetry_Int_Tables_number      2
_space_group_name_Hall           '-P 1'
loop_
_symmetry_equiv_pos_site_id
_symmetry_equiv_pos_as_xyz
1 x,y,z
2 -x,-y,-z
_cell_length_a                   12.246(6)
_cell_length_b                   15.031(7)
_cell_length_c                   15.517(7)
_cell_angle_alpha                93.390(5)
_cell_angle_beta                 103.344(5)
_cell_angle_gamma                101.090(5)
_cell_volume                     2711.12
_exptl_crystal_colour            colorless
_exptl_crystal_description       Block
_cell_formula_units_Z            1
loop_
_atom_site_label
_atom_site_type_symbol
_atom_site_fract_x
_atom_site_fract_y
_atom_site_fract_z
Sn1 Sn 0.5000 0.5000 0.5000
F13 F 0.4168(3) 0.5979(2) 0.5099(2)
F14 F 0.4690(3) 0.4578(2) 0.6108(2)
F15 F 0.6428(3) 0.5814(2) 0.5632(2)
F13A F 0.5832(3) 0.4021(2) 0.4901(2)
F14A F 0.5310(3) 0.5422(2) 0.3892(2)
F15A F 0.3572(3) 0.4186(2) 0.4368(2)
Ag1 Ag 0.40697(4) 0.76931(3) 0.59724(3)
Ag2 Ag 0.74346(4) 0.66427(3) 0.38075(3)
Ag3 Ag 0.81952(4) 0.32335(3) 0.59293(3)
Ag4 Ag 0.47834(4) 0.43054(3) 0.80129(3)
N1 N 0.5157(4) 0.8019(3) 0.4938(3)
N2 N 0.6456(4) 0.7650(3) 0.4131(3)
N3 N 0.3415(4) 0.8799(3) 0.5168(3)
N4 N 0.8271(3) 0.5360(3) 0.4121(3)
N5 N 0.8529(4) 0.4087(3) 0.4905(3)
N6 N 0.8354(4) 0.6353(3) 0.2713(3)
N7 N 0.7201(4) 0.2991(3) 0.7004(3)
N8 N 0.5881(4) 0.3380(3) 0.7782(3)
N9 N 0.8830(4) 0.2107(3) 0.6737(3)
N10 N 0.4103(4) 0.5632(3) 0.7855(3)
N11 N 0.3769(4) 0.6887(3) 0.7051(3)
N12 N 0.3875(3) 0.4532(3) 0.9148(3)
C1 C 0.5950(4) 0.7574(3) 0.4803(3)
C2 C 0.6160(5) 0.8263(3) 0.3576(4)
C3 C 0.5362(4) 0.8761(3) 0.3677(3)
C4 C 0.4828(4) 0.8605(3) 0.4362(3)
C5 C 0.3913(4) 0.9070(3) 0.4513(3)
C6 C 0.3576(4) 0.9742(3) 0.4011(3)
C7 C 0.2722(4) 1.0158(3) 0.4172(4)
C8 C 0.2217(4) 0.9885(3) 0.4842(4)
C9 C 0.2596(5) 0.9198(4) 0.5334(4)
C10 C 0.8163(4) 0.4854(3) 0.4787(3)
C11 C 0.9069(5) 0.3810(4) 0.4297(4)
C12 C 0.9199(5) 0.4281(4) 0.3590(4)
C13 C 0.8795(4) 0.5091(3) 0.3520(3)
C14 C 0.8914(4) 0.5658(3) 0.2774(3)
C15 C 0.9529(5) 0.5472(4) 0.2178(4)
C16 C 0.9587(5) 0.5997(4) 0.1483(4)
C17 C 0.9030(5) 0.6704(4) 0.1417(4)
C18 C 0.8428(5) 0.6859(4) 0.2036(4)
C19 C 0.6403(4) 0.3448(3) 0.7115(3)
C20 C 0.6196(5) 0.2803(4) 0.8386(4)
C21 C 0.7020(5) 0.2308(3) 0.8304(3)
C22 C 0.7522(4) 0.2418(3) 0.7609(3)
C23 C 0.8425(4) 0.1933(3) 0.7458(4)
C24 C 0.8817(5) 0.1335(4) 0.8040(5)
C25 C 0.9654(6) 0.0886(4) 0.7875(5)
C26 C 1.0050(6) 0.1037(4) 0.7131(5)
C27 C 0.9624(5) 0.1657(4) 0.6570(4)
C28 C 0.4205(5) 0.6150(4) 0.7191(4)
C29 C 0.3204(5) 0.7134(4) 0.7644(4)
C30 C 0.3092(5) 0.6648(4) 0.8353(4)
C31 C 0.3545(4) 0.5882(3) 0.8441(3)
C32 C 0.3425(4) 0.5277(3) 0.9162(3)
C33 C 0.2854(5) 0.5476(4) 0.9806(4)
C34 C 0.2761(5) 0.4896(4) 1.0458(4)
C35 C 0.3237(5) 0.4146(4) 1.0442(3)
C36 C 0.3780(5) 0.3980(4) 0.9792(3)
H1 H 0.6171 0.7175 0.5213
H2 H 0.6509 0.8353 0.3107
H3 H 0.5184 0.9193 0.3292
H4 H 0.3928 0.9915 0.3558
H5 H 0.2495 1.0612 0.3836
H6 H 0.1636 1.0148 0.4969
H7 H 0.2260 0.9015 0.5792
H8 H 0.7801 0.5058 0.5202
H9 H 0.9358 0.3283 0.4366
H10 H 0.9546 0.4071 0.3168
H11 H 0.9908 0.4991 0.2241
H12 H 0.9996 0.5873 0.1070
H13 H 0.9057 0.7075 0.0960
H14 H 0.8051 0.7342 0.1983
H15 H 0.6194 0.3842 0.6697
H16 H 0.5855 0.2738 0.8862
H17 H 0.7226 0.1908 0.8716
H18 H 0.8524 0.1234 0.8536
H19 H 0.9939 0.0491 0.8265
H20 H 1.0593 0.0732 0.6997
H21 H 0.9899 0.1762 0.6066
H22 H 0.4615 0.5979 0.6797
H23 H 0.2883 0.7646 0.7572
H24 H 0.2716 0.6835 0.8765
H25 H 0.2539 0.5992 0.9797
H26 H 0.2385 0.5014 1.0895
H27 H 0.3191 0.3747 1.0875
H28 H 0.4096 0.3464 0.9793
F1 F -0.0450(5) 0.7289(4) 0.9311(4)
F2 F 0.0634(4) 0.6764(3) 0.8483(3)
F3 F 0.1165(5) 0.6895(5) 0.9967(4)
F4 F -0.0290(5) 0.5840(3) 0.9249(4)
B1 B 0.0253(6) 0.6710(5) 0.9252(5)
F5 F 0.5452(6) 0.8345(9) 0.0521(6)
F6 F 0.658(1) 0.9211(5) 0.1793(8)
F7 F 0.7293(6) 0.8638(6) 0.0779(5)
F8 F 0.6360(4) 0.7781(3) 0.1610(3)
B2 B 0.6453(9) 0.8554(7) 0.1200(7)
F9 F 0.9104(4) 0.8548(3) 0.6548(4)
F10 F 1.0758(4) 0.8136(3) 0.6503(3)
F11 F 0.9287(4) 0.7707(4) 0.5327(4)
F12 F 1.0134(5) 0.9187(3) 0.5656(4)
B3 B 0.9807(7) 0.8389(5) 0.6005(6)
O1 O 0.6546(6) 0.8325(5) 0.7270(5)
O2 O 0.6212(6) 0.7656(5) 0.8371(5)
N13 N 0.6829(6) 0.8183(4) 0.8060(5)
C37 C 0.7903(7) 0.8694(6) 0.8658(9)
H29 H 0.8542 0.8544 0.8465
H30 H 0.7939 0.8538 0.9253
H31 H 0.7932 0.9336 0.8647
O3 O 0.4253(5) 0.9223(3) 0.7456(3)
O4 O 0.5899(5) 1.0106(4) 0.8011(4)
N14 N 0.5050(6) 0.9564(4) 0.8077(4)
C38 C 0.5027(7) 0.9318(5) 0.8987(4)
H32 H 0.5084 0.9858 0.9371
H33 H 0.5662 0.9038 0.9214
H34 H 0.4320 0.8898 0.8964
O5 O 0.2477(7) 0.9020(7) 0.9876(6)
O6 O 0.0883(8) 0.9483(5) 0.9682(5)
N15 N 0.1644(8) 0.9154(5) 0.9412(5)
C39 C 0.1400(7) 0.8970(5) 0.8466(5)
H35 H 0.0601 0.8951 0.8213
H36 H 0.1573 0.8394 0.8315
H37 H 0.1860 0.9443 0.8234
O7 O 0.7005(5) 0.5704(4) 0.7607(3)
O8 O 0.8195(4) 0.5211(3) 0.6999(3)
N16 N 0.7795(4) 0.5818(4) 0.7232(3)
C40 C 0.8245(6) 0.6754(4) 0.7058(5)
H38 H 0.8897 0.7034 0.7534
H39 H 0.7659 0.7102 0.7020
H40 H 0.8472 0.6736 0.6506
loop_
_geom_bond_atom_site_label_1
_geom_bond_atom_site_label_2
_geom_bond_site_symmetry_1
_geom_bond_site_symmetry_2
Sn1 F13 1_555 1_555
Ag1 N1 1_555 1_555
Ag2 N2 1_555 1_555
Ag3 N5 1_555 1_555
Ag4 N8 1_555 1_555
F1 B1 1_555 1_555
F2 B1 1_555 1_555
F3 B1 1_555 1_555
F4 B1 1_555 1_555
F5 B2 1_555 1_555
F6 B2 1_555 1_555
F7 B2 1_555 1_555
F8 B2 1_555 1_555
F9 B3 1_555 1_555
F10 B3 1_555 1_555
F11 B3 1_555 1_555
F12 B3 1_555 1_555
F14 Sn1 1_555 1_555
F15 Sn1 1_555 1_555
O1 N13 1_555 1_555
O2 N13 1_555 1_555
O3 N14 1_555 1_555
O4 N14 1_555 1_555
O5 N15 1_555 1_555
O6 N15 1_555 1_555
O7 N16 1_555 1_555
O8 N16 1_555 1_555
N1 C1 1_555 1_555
N2 C1 1_555 1_555
N3 Ag1 1_555 1_555
N4 Ag2 1_555 1_555
N5 C10 1_555 1_555
N6 Ag2 1_555 1_555
N7 Ag3 1_555 1_555
N8 C19 1_555 1_555
N9 Ag3 1_555 1_555
N10 Ag4 1_555 1_555
N11 Ag1 1_555 1_555
N12 Ag4 1_555 1_555
N13 C37 1_555 1_555
N14 C38 1_555 1_555
N15 C39 1_555 1_555
N16 C40 1_555 1_555
C1 H1 1_555 1_555
C2 N2 1_555 1_555
C3 C2 1_555 1_555
C4 N1 1_555 1_555
C5 N3 1_555 1_555
C6 C5 1_555 1_555
C7 C6 1_555 1_555
C8 C7 1_555 1_555
C9 N3 1_555 1_555
C10 N4 1_555 1_555
C11 N5 1_555 1_555
C12 C11 1_555 1_555
C13 N4 1_555 1_555
C14 N6 1_555 1_555
C15 C14 1_555 1_555
C16 C15 1_555 1_555
C17 C16 1_555 1_555
C18 N6 1_555 1_555
C19 N7 1_555 1_555
C20 N8 1_555 1_555
C21 C20 1_555 1_555
C22 N7 1_555 1_555
C23 N9 1_555 1_555
C24 C23 1_555 1_555
C25 C24 1_555 1_555
C26 C25 1_555 1_555
C27 N9 1_555 1_555
C28 N10 1_555 1_555
C29 N11 1_555 1_555
C30 C29 1_555 1_555
C31 N10 1_555 1_555
C32 N12 1_555 1_555
C33 C32 1_555 1_555
C34 C33 1_555 1_555
C35 C34 1_555 1_555
C36 N12 1_555 1_555
C37 H29 1_555 1_555
C38 H32 1_555 1_555
C39 H35 1_555 1_555
C40 H38 1_555 1_555
H2 C2 1_555 1_555
H3 C3 1_555 1_555
H4 C6 1_555 1_555
H5 C7 1_555 1_555
H6 C8 1_555 1_555
H7 C9 1_555 1_555
H8 C10 1_555 1_555
H9 C11 1_555 1_555
H10 C12 1_555 1_555
H11 C15 1_555 1_555
H12 C16 1_555 1_555
H13 C17 1_555 1_555
H14 C18 1_555 1_555
H15 C19 1_555 1_555
H16 C20 1_555 1_555
H17 C21 1_555 1_555
H18 C24 1_555 1_555
H19 C25 1_555 1_555
H20 C26 1_555 1_555
H21 C27 1_555 1_555
H22 C28 1_555 1_555
H23 C29 1_555 1_555
H24 C30 1_555 1_555
H25 C33 1_555 1_555
H26 C34 1_555 1_555
H27 C35 1_555 1_555
H28 C36 1_555 1_555
H30 C37 1_555 1_555
H31 C37 1_555 1_555
H33 C38 1_555 1_555
H34 C38 1_555 1_555
H36 C39 1_555 1_555
H37 C39 1_555 1_555
H39 C40 1_555 1_555
H40 C40 1_555 1_555
F13A Sn1 1_555 1_555
F14A Sn1 1_555 1_555
F15A Sn1 1_555 1_555
N11 C28 1_555 1_555
C3 C4 1_555 1_555
C4 C5 1_555 1_555
C8 C9 1_555 1_555
C12 C13 1_555 1_555
C13 C14 1_555 1_555
C17 C18 1_555 1_555
C21 C22 1_555 1_555
C22 C23 1_555 1_555
C26 C27 1_555 1_555
C30 C31 1_555 1_555
C31 C32 1_555 1_555
C35 C36 1_555 1_555

#END
