
#######################################################################
#
#                 Cambridge Crystallographic Data Centre
#                                CCDC 
#
#######################################################################
#
# If this CIF has been generated from an entry in the Cambridge 
# Structural Database, then it will include bibliographic, chemical, 
# crystal, experimental, refinement or atomic coordinate data resulting 
# from the CCDC's data processing and validation procedures.
#
#######################################################################

data_NEPCER
_chemical_formula_moiety         'C36 H40 N8 Pd2 4+,4(N1 O3 1-),3(H2 O1)'
_chemical_name_systematic        
'bis(\m~2~-1,4-bis(3-Pyridyl)benzene)-bis(ethylenediamine)-di-palladium(ii) tetranitrate trihydrate'
_symmetry_cell_setting           monoclinic
_symmetry_space_group_name_H-M   'P 21/n'
_symmetry_Int_Tables_number      14
_space_group_name_Hall           '-P 2yn'
loop_
_symmetry_equiv_pos_site_id
_symmetry_equiv_pos_as_xyz
1 x,y,z
2 1/2-x,1/2+y,1/2-z
3 -x,-y,-z
4 1/2+x,1/2-y,1/2+z
_cell_length_a                   22.178(3)
_cell_length_b                   12.998(2)
_cell_length_c                   30.286(2)
_cell_angle_alpha                90
_cell_angle_beta                 98.138(8)
_cell_angle_gamma                90
_cell_volume                     8642.62
_exptl_crystal_colour            colorless
_exptl_crystal_description       prismatic
_chemical_melting_point          'decomposes at 240 deg.C'
_cell_formula_units_Z            8
_exptl_crystal_recrystallization_method 'diethyl ether'
loop_
_atom_site_label
_atom_site_type_symbol
_atom_site_fract_x
_atom_site_fract_y
_atom_site_fract_z
Pd1 Pd 0.16846(4) 0.48831(6) -0.21765(3)
Pd2 Pd 0.49515(3) 0.49622(6) 0.10488(3)
N1 N 0.2021(5) 0.5375(8) -0.2718(3)
N2 N 0.1655(4) 0.3499(7) -0.2487(3)
N3 N 0.1747(4) 0.6290(7) -0.1880(3)
N4 N 0.1342(4) 0.4278(7) -0.1644(3)
N5 N 0.5755(4) 0.5583(7) 0.0961(3)
N6 N 0.5428(4) 0.3640(7) 0.1100(3)
N7 N 0.4166(4) 0.4236(6) 0.1134(3)
N8 N 0.4521(3) 0.6332(7) 0.0914(3)
C1 C 0.1977(6) 0.4577(10) -0.3064(4)
C2 C 0.2039(7) 0.358(1) -0.2854(4)
C3 C 0.0748(5) 0.4115(9) -0.1663(4)
C4 C 0.0483(5) 0.3811(9) -0.1281(4)
C5 C 0.0853(5) 0.3667(9) -0.0879(4)
C6 C 0.1488(5) 0.3823(8) -0.0874(4)
C7 C 0.1705(5) 0.4128(8) -0.1265(4)
C8 C 0.2738(4) 0.3683(7) 0.0353(4)
C9 C 0.2944(4) 0.3500(8) -0.0047(4)
C10 C 0.2552(5) 0.3541(8) -0.0432(4)
C11 C 0.1924(5) 0.3748(7) -0.0442(3)
C12 C 0.1714(5) 0.3911(8) -0.0036(3)
C13 C 0.2117(5) 0.3865(7) 0.0359(3)
C14 C 0.3755(5) 0.4087(7) 0.0766(3)
C15 C 0.3168(5) 0.3717(7) 0.0779(3)
C16 C 0.3007(4) 0.3453(8) 0.1198(4)
C17 C 0.3442(5) 0.3569(9) 0.1569(3)
C18 C 0.4003(5) 0.3982(9) 0.1535(3)
C19 C 0.6086(5) 0.3871(9) 0.1093(4)
C20 C 0.6131(5) 0.4751(9) 0.0796(4)
C21 C 0.1380(4) 0.7087(8) -0.2030(4)
C22 C 0.1395(4) 0.8006(8) -0.1799(4)
C23 C 0.1782(5) 0.8131(8) -0.1415(4)
C24 C 0.2171(5) 0.7328(7) -0.1244(4)
C25 C 0.2142(5) 0.6431(8) -0.1500(4)
C26 C 0.2599(4) 0.7370(7) -0.0821(3)
C27 C 0.2982(5) 0.8201(8) -0.0711(3)
C28 C 0.3395(4) 0.8181(8) -0.0320(3)
C29 C 0.3423(4) 0.7352(8) -0.0035(3)
C30 C 0.3026(5) 0.6550(7) -0.0129(3)
C31 C 0.2630(4) 0.6551(8) -0.0521(4)
C32 C 0.4136(4) 0.6438(8) 0.0521(3)
C33 C 0.3864(4) 0.7357(8) 0.0386(3)
C34 C 0.3992(5) 0.8209(8) 0.0652(4)
C35 C 0.4393(5) 0.8132(8) 0.1029(4)
C36 C 0.4635(4) 0.7160(8) 0.1161(3)
H1 H 0.1808 0.2963 -0.2281
H2 H 0.1247 0.3321 -0.2610
H11 H 0.2269 0.4692 -0.3251
H12 H 0.1573 0.4635 -0.3239
H13 H 0.1918 0.3033 -0.3070
H14 H 0.2455 0.3446 -0.2732
H15 H 0.6541 0.4966 0.0814
H16 H 0.5971 0.4579 0.0501
H17 H 0.6282 0.3262 0.0974
H18 H 0.6296 0.3981 0.1385
H19 H 0.1796 0.5986 -0.2835
H20 H 0.2435 0.5573 -0.2643
H21 H 0.5704 0.6121 0.0739
H22 H 0.5966 0.5864 0.1229
H23 H 0.5378 0.3299 0.1380
H24 H 0.5274 0.3178 0.0866
H33 H 0.0487 0.4204 -0.1942
H34 H 0.0044 0.3751 -0.1299
H35 H 0.0697 0.3411 -0.0626
H36 H 0.2147 0.4184 -0.1260
H37 H 0.3375 0.3327 -0.0052
H38 H 0.2699 0.3438 -0.0721
H39 H 0.1291 0.4027 -0.0031
H40 H 0.1971 0.3964 0.0635
H41 H 0.3870 0.4249 0.0474
H42 H 0.2610 0.3211 0.1220
H43 H 0.3347 0.3364 0.1850
H44 H 0.4285 0.4100 0.1802
H45 H 0.1109 0.7004 -0.2304
H46 H 0.1129 0.8550 -0.1915
H47 H 0.1796 0.8771 -0.1261
H48 H 0.2427 0.5867 -0.1409
H49 H 0.2982 0.8777 -0.0915
H50 H 0.3673 0.8734 -0.0247
H51 H 0.3033 0.5995 0.0076
H52 H 0.2369 0.5973 -0.0602
H53 H 0.4052 0.5842 0.0340
H54 H 0.3802 0.8869 0.0552
H55 H 0.4515 0.8716 0.1209
H56 H 0.4901 0.7102 0.1437
Pd3 Pd 0.33691(3) 0.97729(6) 0.21825(3)
Pd4 Pd 0.01021(3) 0.99117(6) -0.10422(2)
N9 N 0.2965(4) 0.9301(7) 0.2694(3)
N10 N 0.3390(4) 1.1147(7) 0.2495(3)
N11 N 0.3266(4) 0.8381(7) 0.1877(3)
N12 N 0.3742(3) 1.0377(6) 0.1669(3)
N13 N -0.0746(4) 0.9411(6) -0.0984(3)
N14 N -0.0313(4) 1.1304(7) -0.1118(3)
N15 N 0.0460(4) 0.8476(7) -0.0899(3)
N16 N 0.0938(4) 1.0516(7) -0.1104(3)
C37 C -0.1087(4) 1.0277(9) -0.0843(4)
C38 C -0.0989(5) 1.1176(9) -0.1127(4)
C39 C 0.1340(5) 1.0648(8) -0.0745(3)
C40 C 0.1940(4) 1.0984(8) -0.0749(3)
C41 C 0.2101(5) 1.1224(8) -0.1166(4)
C42 C 0.1656(5) 1.1124(8) -0.1543(3)
C43 C 0.1107(5) 1.0746(9) -0.1502(4)
C44 C 0.2373(4) 1.1021(8) -0.0329(3)
C45 C 0.2159(4) 1.1182(7) 0.0089(3)
C46 C 0.2579(5) 1.1172(8) 0.0474(3)
C47 C 0.3196(4) 1.0980(7) 0.0474(3)
C48 C 0.3409(4) 1.0868(7) 0.0061(3)
C49 C 0.3008(5) 1.0868(8) -0.0333(4)
C50 C 0.3393(4) 1.0535(7) 0.1282(3)
C51 C 0.3611(4) 1.0907(8) 0.0903(3)
C52 C 0.4230(5) 1.1115(8) 0.0929(4)
C53 C 0.4608(4) 1.0967(8) 0.1339(4)
C54 C 0.4338(5) 1.0609(8) 0.1692(4)
C55 C 0.3251(6) 1.0982(9) 0.2962(4)
C56 C 0.2775(6) 1.021(1) 0.2929(5)
C57 C 0.3599(5) 0.7530(9) 0.2019(4)
C58 C 0.3533(5) 0.6619(8) 0.1808(4)
C59 C 0.3133(5) 0.6537(8) 0.1427(3)
C60 C 0.2771(4) 0.7385(8) 0.1265(3)
C61 C 0.2847(4) 0.8265(8) 0.1509(3)
C62 C 0.2333(5) 0.7373(8) 0.0858(3)
C63 C 0.1939(5) 0.6537(8) 0.0751(4)
C64 C 0.1515(4) 0.6556(7) 0.0357(3)
C65 C 0.1496(4) 0.7375(7) 0.0072(3)
C66 C 0.1906(5) 0.8206(8) 0.0176(3)
C67 C 0.2301(4) 0.8187(7) 0.0557(3)
C68 C 0.0808(4) 0.8362(7) -0.0506(3)
C69 C 0.1068(4) 0.7429(7) -0.0356(3)
C70 C 0.0907(5) 0.6576(8) -0.0631(4)
C71 C 0.0527(5) 0.6694(8) -0.1024(4)
C72 C 0.0306(5) 0.7671(8) -0.1163(4)
H3 H -0.1176 1.1078 -0.1427
H4 H -0.1157 1.1798 -0.1017
H5 H -0.0927 1.0431 -0.0536
H6 H -0.1500 1.0116 -0.0863
H7 H 0.3141 1.1619 0.3091
H8 H 0.3623 1.0747 0.3150
H9 H 0.2680 1.0010 0.3215
H10 H 0.2406 1.0477 0.2759
H25 H 0.2616 0.8876 0.2590
H26 H 0.3237 0.8897 0.2898
H27 H 0.3771 1.1465 0.2488
H28 H 0.3076 1.1582 0.2337
H29 H -0.0949 0.9161 -0.1262
H30 H -0.0733 0.8867 -0.0769
H31 H -0.0164 1.1733 -0.0867
H32 H -0.0233 1.1618 -0.1382
H57 H 0.1217 1.0503 -0.0451
H58 H 0.2497 1.1457 -0.1194
H59 H 0.1766 1.1311 -0.1829
H60 H 0.0815 1.0640 -0.1771
H61 H 0.1726 1.1290 0.0105
H62 H 0.2445 1.1299 0.0759
H63 H 0.3845 1.0799 0.0053
H64 H 0.3164 1.0787 -0.0613
H65 H 0.2967 1.0385 0.1261
H66 H 0.4397 1.1374 0.0672
H67 H 0.5037 1.1134 0.1371
H68 H 0.4608 1.0508 0.1972
H69 H 0.3878 0.7549 0.2286
H70 H 0.3762 0.6022 0.1923
H71 H 0.3102 0.5906 0.1261
H72 H 0.2575 0.8849 0.1423
H73 H 0.1946 0.5952 0.0960
H74 H 0.1215 0.6007 0.0297
H75 H 0.1897 0.8774 -0.0028
H76 H 0.2555 0.8768 0.0633
H77 H 0.0879 0.8958 -0.0313
H78 H 0.1072 0.5898 -0.0546
H79 H 0.0418 0.6110 -0.1213
H80 H 0.0033 0.7764 -0.1442
O1 O 0.4451(4) 0.2613(7) -0.0334(3)
O2 O 0.4714(4) 0.3947(6) 0.0067(3)
O3 O 0.5035(4) 0.2449(6) 0.0282(3)
N17 N 0.4728(4) 0.3014(7) 0.0006(3)
O4 O 0.4542(4) 0.2335(7) 0.2376(3)
O5 O 0.4329(4) 0.2594(7) 0.3055(3)
O6 O 0.5249(4) 0.2882(8) 0.2903(3)
N19 N 0.4715(5) 0.2617(7) 0.2785(4)
O7 O 0.2177(3) 1.0607(7) 0.1694(3)
O8 O 0.1786(4) 1.1962(7) 0.1344(3)
O9 O 0.2325(4) 1.2100(7) 0.1992(3)
N24 N 0.2091(4) 1.1557(8) 0.1682(3)
O10 O 0.0373(4) 1.0979(6) -0.0068(3)
O11 O 0.0027(4) 1.2467(6) -0.0285(3)
O12 O 0.0616(4) 1.2329(7) 0.0341(3)
N23 N 0.0344(4) 1.1901(7) -0.0006(3)
O13 O 0.1001(5) 0.065(1) 0.1990(3)
O14 O 0.0024(4) 0.0821(8) 0.1999(3)
O15 O 0.0594(5) 0.0005(9) 0.2521(4)
N18 N 0.0540(5) 0.0506(8) 0.2171(3)
O16 O 0.1615(5) -0.0319(8) 0.7554(3)
O17 O 0.0889(4) 0.0291(9) 0.7066(3)
O18 O 0.1723(5) 0.1219(7) 0.7295(3)
N22 N 0.1402(6) 0.0406(9) 0.7302(3)
O19 O 0.5424(7) 0.027(1) 0.7076(8)
O20 O 0.4676(9) 0.059(2) 0.7584(7)
O21 O 0.540(1) 0.174(1) 0.7107(6)
N21 N 0.5117(8) 0.083(1) 0.7285(7)
O22 O 0.7959(4) 0.0889(7) 0.3359(3)
O23 O 0.7732(4) 0.2412(7) 0.3082(3)
O24 O 0.8474(6) 0.2181(9) 0.3602(5)
N20 N 0.8044(4) 0.1833(8) 0.3340(3)
O25 O 0.5624(9) -0.026(2) 0.0697(8)
O26 O 0.5585(4) 0.2505(6) 0.1958(3)
O27 O 0.4221(7) 0.117(1) 0.8312(6)
O28 O 0.8238(4) 0.1238(8) 0.7726(3)
O29 O 0.9592(5) 0.173(1) 0.2856(3)
O30 O 0.5440(7) 0.051(1) 0.5360(7)
loop_
_geom_bond_atom_site_label_1
_geom_bond_atom_site_label_2
_geom_bond_site_symmetry_1
_geom_bond_site_symmetry_2
Pd1 N1 1_555 1_555
Pd2 N5 1_555 1_555
Pd3 N9 1_555 1_555
Pd4 N13 1_555 1_555
O1 N17 1_555 1_555
O2 N17 1_555 1_555
O3 N17 1_555 1_555
O4 N19 1_555 1_555
O5 N19 1_555 1_555
O6 N19 1_555 1_555
O7 N24 1_555 1_555
O8 N24 1_555 1_555
O9 N24 1_555 1_555
O10 N23 1_555 1_555
O11 N23 1_555 1_555
O12 N23 1_555 1_555
O13 N18 1_555 1_555
O14 N18 1_555 1_555
O15 N18 1_555 1_555
O16 N22 1_555 1_555
O17 N22 1_555 1_555
O18 N22 1_555 1_555
O19 N21 1_555 1_555
O20 N21 1_555 1_555
O21 N21 1_555 1_555
O22 N20 1_555 1_555
O23 N20 1_555 1_555
O24 N20 1_555 1_555
N1 C1 1_555 1_555
N2 Pd1 1_555 1_555
N3 Pd1 1_555 1_555
N4 Pd1 1_555 1_555
N5 C20 1_555 1_555
N6 Pd2 1_555 1_555
N7 Pd2 1_555 1_555
N8 Pd2 1_555 1_555
N9 C56 1_555 1_555
N10 Pd3 1_555 1_555
N11 Pd3 1_555 1_555
N12 Pd3 1_555 1_555
N13 C37 1_555 1_555
N14 Pd4 1_555 1_555
N15 Pd4 1_555 1_555
N16 Pd4 1_555 1_555
C1 C2 1_555 1_555
C2 N2 1_555 1_555
C3 N4 1_555 1_555
C4 C3 1_555 1_555
C5 C4 1_555 1_555
C6 C5 1_555 1_555
C7 N4 1_555 1_555
C8 C9 1_555 1_555
C9 C10 1_555 1_555
C10 C11 1_555 1_555
C11 C6 1_555 1_555
C12 C11 1_555 1_555
C13 C8 1_555 1_555
C14 N7 1_555 1_555
C15 C8 1_555 1_555
C16 C15 1_555 1_555
C17 C16 1_555 1_555
C18 N7 1_555 1_555
C19 N6 1_555 1_555
C20 C19 1_555 1_555
C21 N3 1_555 1_555
C22 C21 1_555 1_555
C23 C22 1_555 1_555
C24 C23 1_555 1_555
C25 N3 1_555 1_555
C26 C24 1_555 1_555
C27 C26 1_555 1_555
C28 C27 1_555 1_555
C29 C28 1_555 1_555
C30 C29 1_555 1_555
C31 C26 1_555 1_555
C32 N8 1_555 1_555
C33 C29 1_555 1_555
C34 C33 1_555 1_555
C35 C34 1_555 1_555
C36 N8 1_555 1_555
C37 C38 1_555 1_555
C38 N14 1_555 1_555
C39 N16 1_555 1_555
C40 C39 1_555 1_555
C41 C40 1_555 1_555
C42 C41 1_555 1_555
C43 N16 1_555 1_555
C44 C40 1_555 1_555
C45 C44 1_555 1_555
C46 C45 1_555 1_555
C47 C46 1_555 1_555
C48 C47 1_555 1_555
C49 C44 1_555 1_555
C50 N12 1_555 1_555
C51 C47 1_555 1_555
C52 C51 1_555 1_555
C53 C52 1_555 1_555
C54 N12 1_555 1_555
C55 N10 1_555 1_555
C56 C55 1_555 1_555
C57 N11 1_555 1_555
C58 C57 1_555 1_555
C59 C58 1_555 1_555
C60 C59 1_555 1_555
C61 N11 1_555 1_555
C62 C60 1_555 1_555
C63 C62 1_555 1_555
C64 C63 1_555 1_555
C65 C64 1_555 1_555
C66 C65 1_555 1_555
C67 C62 1_555 1_555
C68 N15 1_555 1_555
C69 C65 1_555 1_555
C70 C69 1_555 1_555
C71 C70 1_555 1_555
C72 N15 1_555 1_555
H1 N2 1_555 1_555
H2 N2 1_555 1_555
H3 C38 1_555 1_555
H4 C38 1_555 1_555
H5 C37 1_555 1_555
H6 C37 1_555 1_555
H7 C55 1_555 1_555
H8 C55 1_555 1_555
H9 C56 1_555 1_555
H10 C56 1_555 1_555
H11 C1 1_555 1_555
H12 C1 1_555 1_555
H13 C2 1_555 1_555
H14 C2 1_555 1_555
H15 C20 1_555 1_555
H16 C20 1_555 1_555
H17 C19 1_555 1_555
H18 C19 1_555 1_555
H19 N1 1_555 1_555
H20 N1 1_555 1_555
H21 N5 1_555 1_555
H22 N5 1_555 1_555
H23 N6 1_555 1_555
H24 N6 1_555 1_555
H25 N9 1_555 1_555
H26 N9 1_555 1_555
H27 N10 1_555 1_555
H28 N10 1_555 1_555
H29 N13 1_555 1_555
H30 N13 1_555 1_555
H31 N14 1_555 1_555
H32 N14 1_555 1_555
H33 C3 1_555 1_555
H34 C4 1_555 1_555
H35 C5 1_555 1_555
H36 C7 1_555 1_555
H37 C9 1_555 1_555
H38 C10 1_555 1_555
H39 C12 1_555 1_555
H40 C13 1_555 1_555
H41 C14 1_555 1_555
H42 C16 1_555 1_555
H43 C17 1_555 1_555
H44 C18 1_555 1_555
H45 C21 1_555 1_555
H46 C22 1_555 1_555
H47 C23 1_555 1_555
H48 C25 1_555 1_555
H49 C27 1_555 1_555
H50 C28 1_555 1_555
H51 C30 1_555 1_555
H52 C31 1_555 1_555
H53 C32 1_555 1_555
H54 C34 1_555 1_555
H55 C35 1_555 1_555
H56 C36 1_555 1_555
H57 C39 1_555 1_555
H58 C41 1_555 1_555
H59 C42 1_555 1_555
H60 C43 1_555 1_555
H61 C45 1_555 1_555
H62 C46 1_555 1_555
H63 C48 1_555 1_555
H64 C49 1_555 1_555
H65 C50 1_555 1_555
H66 C52 1_555 1_555
H67 C53 1_555 1_555
H68 C54 1_555 1_555
H69 C57 1_555 1_555
H70 C58 1_555 1_555
H71 C59 1_555 1_555
H72 C61 1_555 1_555
H73 C63 1_555 1_555
H74 C64 1_555 1_555
H75 C66 1_555 1_555
H76 C67 1_555 1_555
H77 C68 1_555 1_555
H78 C70 1_555 1_555
H79 C71 1_555 1_555
H80 C72 1_555 1_555
C6 C7 1_555 1_555
C12 C13 1_555 1_555
C14 C15 1_555 1_555
C17 C18 1_555 1_555
C24 C25 1_555 1_555
C30 C31 1_555 1_555
C32 C33 1_555 1_555
C35 C36 1_555 1_555
C42 C43 1_555 1_555
C48 C49 1_555 1_555
C50 C51 1_555 1_555
C53 C54 1_555 1_555
C60 C61 1_555 1_555
C66 C67 1_555 1_555
C68 C69 1_555 1_555
C71 C72 1_555 1_555

#END
