
#######################################################################
#
#                 Cambridge Crystallographic Data Centre
#                                CCDC 
#
#######################################################################
#
# If this CIF has been generated from an entry in the Cambridge 
# Structural Database, then it will include bibliographic, chemical, 
# crystal, experimental, refinement or atomic coordinate data resulting 
# from the CCDC's data processing and validation procedures.
#
#######################################################################

data_OMADAH
_chemical_formula_moiety         
'C72 H54 Ag3 N6 S6 3+,3(C1 F3 O3 S1 1-),5(C1 H4 O1),2(H2 O1)'
_chemical_name_systematic        
'bis(\m~3~-2,4,6-tris(4-Methylphenyl)-1,3,5-tris(1,3-thiazol-2-yl)benzene)-tri-silver(i) tris(trifluoromethanesulfonate) methanol solvate dihydrate'
_symmetry_cell_setting           orthorhombic
_symmetry_space_group_name_H-M   'P n a 21'
_symmetry_Int_Tables_number      33
_space_group_name_Hall           'P 2c -2n'
loop_
_symmetry_equiv_pos_site_id
_symmetry_equiv_pos_as_xyz
1 x,y,z
2 -x,-y,1/2+z
3 1/2-x,1/2+y,1/2+z
4 1/2+x,1/2-y,z
_cell_length_a                   24.508(2)
_cell_length_b                   23.017(2)
_cell_length_c                   15.9848(9)
_cell_angle_alpha                90
_cell_angle_beta                 90
_cell_angle_gamma                90
_cell_volume                     9017.04
_exptl_crystal_colour            colorless
_exptl_crystal_description       block
_cell_formula_units_Z            4
loop_
_atom_site_label
_atom_site_type_symbol
_atom_site_fract_x
_atom_site_fract_y
_atom_site_fract_z
Ag1 Ag 0.66887(2) 0.40340(2) 0.2016(10)
Ag2 Ag 0.81501(2) 0.61256(2) 0.1927(10)
Ag3 Ag 0.75071(2) 0.51378(2) 0.5347(10)
S1 S 0.83872(8) 0.35355(8) 0.0878(10)
S2 S 0.96847(8) 0.5361(1) 0.3263(10)
S3 S 0.82168(9) 0.32533(8) 0.4990(10)
S4 S 0.52645(7) 0.48310(8) 0.3608(10)
S5 S 0.64185(8) 0.66517(8) 0.0987(10)
S6 S 0.67020(9) 0.69681(8) 0.5123(10)
N1 N 0.7420(2) 0.3773(3) 0.135(1)
N2 N 0.8886(3) 0.5883(3) 0.259(1)
N3 N 0.7750(3) 0.4226(3) 0.530(1)
N4 N 0.6007(2) 0.4300(2) 0.281(1)
N5 N 0.7394(2) 0.6372(3) 0.135(1)
N6 N 0.7269(3) 0.6052(3) 0.531(1)
C1 C 0.8133(3) 0.4121(3) 0.237(1)
C2 C 0.8473(3) 0.4602(3) 0.230(1)
C3 C 0.8649(3) 0.4876(3) 0.303(1)
C4 C 0.8503(3) 0.4661(3) 0.382(1)
C5 C 0.8160(3) 0.4191(3) 0.389(1)
C6 C 0.7964(3) 0.3903(3) 0.316(1)
C7 C 0.7942(3) 0.3811(3) 0.160(1)
C8 C 0.7870(4) 0.3376(3) 0.023(1)
C9 C 0.7385(4) 0.3525(3) 0.057(1)
C10 C 0.8643(3) 0.4815(3) 0.146(1)
C11 C 0.9193(3) 0.4829(3) 0.123(1)
C12 C 0.9354(3) 0.5072(4) 0.048(1)
C13 C 0.8966(3) 0.5304(3) -0.008(1)
C14 C 0.8416(3) 0.5282(3) 0.014(1)
C15 C 0.8266(3) 0.5045(3) 0.090(1)
C16 C 0.9132(4) 0.5561(5) -0.091(1)
C17 C 0.9026(3) 0.5382(3) 0.295(1)
C18 C 0.9779(4) 0.6051(4) 0.291(1)
C19 C 0.9324(3) 0.6260(4) 0.257(1)
C20 C 0.8709(3) 0.4968(3) 0.459(1)
C21 C 0.9013(3) 0.4661(4) 0.519(1)
C22 C 0.9184(3) 0.4966(4) 0.591(1)
C23 C 0.9075(3) 0.5544(4) 0.606(1)
C24 C 0.8768(3) 0.5840(4) 0.545(1)
C25 C 0.8587(3) 0.5559(3) 0.473(1)
C26 C 0.9263(4) 0.5854(6) 0.683(1)
C27 C 0.8020(3) 0.3944(3) 0.471(1)
C28 C 0.7935(4) 0.3340(4) 0.595(1)
C29 C 0.7712(4) 0.3880(4) 0.602(1)
C30 C 0.7592(3) 0.3394(3) 0.325(1)
C31 C 0.7746(3) 0.2833(3) 0.300(1)
C32 C 0.7388(3) 0.2373(3) 0.313(1)
C33 C 0.6880(3) 0.2453(3) 0.349(1)
C34 C 0.6723(3) 0.3002(3) 0.372(1)
C35 C 0.7076(3) 0.3470(3) 0.360(1)
C36 C 0.6496(4) 0.1944(4) 0.363(1)
C37 C 0.6275(3) 0.5315(3) 0.320(1)
C38 C 0.6424(3) 0.5576(3) 0.245(1)
C39 C 0.6748(3) 0.6090(3) 0.247(1)
C40 C 0.6909(3) 0.6331(3) 0.322(1)
C41 C 0.6761(3) 0.6064(3) 0.396(1)
C42 C 0.6435(3) 0.5550(3) 0.396(1)
C43 C 0.5907(3) 0.4792(3) 0.319(1)
C44 C 0.5136(3) 0.4141(3) 0.329(1)
C45 C 0.5577(3) 0.3916(3) 0.287(1)
C46 C 0.6256(3) 0.5315(3) 0.162(1)
C47 C 0.5708(3) 0.5243(3) 0.143(1)
C48 C 0.5570(3) 0.4919(3) 0.071(1)
C49 C 0.5950(3) 0.4678(3) 0.020(1)
C50 C 0.6492(3) 0.4772(3) 0.039(1)
C51 C 0.6653(3) 0.5087(3) 0.110(1)
C52 C 0.5797(4) 0.4274(4) -0.052(1)
C53 C 0.6893(3) 0.6357(3) 0.164(1)
C54 C 0.6902(3) 0.6789(3) 0.025(1)
C55 C 0.7397(3) 0.6616(3) 0.054(1)
C56 C 0.7231(3) 0.6887(3) 0.322(1)
C57 C 0.6972(3) 0.7401(3) 0.298(1)
C58 C 0.7241(4) 0.7933(3) 0.300(1)
C59 C 0.7786(4) 0.7950(4) 0.327(1)
C60 C 0.8037(4) 0.7456(4) 0.353(1)
C61 C 0.7757(3) 0.6911(4) 0.352(1)
C62 C 0.8093(5) 0.8518(5) 0.330(1)
C63 C 0.6934(3) 0.6314(3) 0.479(1)
C64 C 0.7073(4) 0.6899(3) 0.601(1)
C65 C 0.7351(3) 0.6386(3) 0.602(1)
C66 C 0.6267(3) 0.5280(3) 0.478(1)
C67 C 0.6410(3) 0.4713(3) 0.495(1)
C68 C 0.6256(3) 0.4455(4) 0.571(1)
C69 C 0.5973(3) 0.4754(4) 0.631(1)
C70 C 0.5829(3) 0.5343(4) 0.612(1)
C71 C 0.5972(3) 0.5586(3) 0.536(1)
C72 C 0.5822(4) 0.4497(6) 0.713(1)
H1 H 0.7913 0.3205 -0.0315
H2 H 0.7047 0.3463 0.0289
H3 H 0.9459 0.4669 0.1591
H4 H 0.9731 0.5084 0.0336
H5 H 0.8146 0.5430 -0.0229
H6 H 0.7890 0.5039 0.1046
H7 H 0.9518 0.5546 -0.0970
H8 H 0.8969 0.5345 -0.1357
H9 H 0.9014 0.5954 -0.0946
H10 H 1.0113 0.6260 0.2944
H11 H 0.9302 0.6637 0.2323
H12 H 0.9100 0.4262 0.5112
H13 H 0.9386 0.4760 0.6318
H14 H 0.8684 0.6239 0.5521
H15 H 0.8378 0.5767 0.4325
H16 H 0.9651 0.5849 0.6855
H17 H 0.9139 0.6245 0.6817
H18 H 0.9118 0.5665 0.7309
H19 H 0.7934 0.3054 0.6378
H20 H 0.7544 0.4013 0.6517
H21 H 0.8091 0.2769 0.2743
H22 H 0.7495 0.1993 0.2961
H23 H 0.6375 0.3063 0.3966
H24 H 0.6963 0.3849 0.3760
H25 H 0.6416 0.1913 0.4208
H26 H 0.6168 0.2004 0.3325
H27 H 0.6665 0.1595 0.3442
H28 H 0.4804 0.3938 0.3381
H29 H 0.5585 0.3535 0.2631
H30 H 0.5433 0.5406 0.1777
H31 H 0.5196 0.4869 0.0570
H32 H 0.6764 0.4619 0.0020
H33 H 0.7029 0.5143 0.1213
H34 H 0.5411 0.4267 -0.0580
H35 H 0.5957 0.4411 -0.1024
H36 H 0.5925 0.3894 -0.0404
H37 H 0.6837 0.6960 -0.0283
H38 H 0.7722 0.6658 0.0220
H39 H 0.6605 0.7387 0.2781
H40 H 0.7058 0.8279 0.2840
H41 H 0.8405 0.7472 0.3708
H42 H 0.7932 0.6570 0.3712
H43 H 0.8197 0.8601 0.3855
H44 H 0.8410 0.8490 0.2956
H45 H 0.7865 0.8820 0.3091
H46 H 0.7084 0.7178 0.6447
H47 H 0.7582 0.6270 0.6458
H48 H 0.6615 0.4496 0.4555
H49 H 0.6350 0.4061 0.5807
H50 H 0.5636 0.5568 0.6518
H51 H 0.5864 0.5972 0.5230
H52 H 0.5438 0.4512 0.7198
H53 H 0.5941 0.4104 0.7151
H54 H 0.5993 0.4711 0.7565
S7 S 0.7649(1) 0.5218(1) 0.7674(10)
F1 F 0.6733(4) 0.5086(4) 0.843(1)
F2 F 0.7261(3) 0.5701(4) 0.902(1)
F3 F 0.6834(3) 0.5929(3) 0.788(1)
O1 O 0.7377(3) 0.5022(3) 0.694(1)
O2 O 0.7890(4) 0.4760(4) 0.818(1)
O3 O 0.7983(3) 0.5727(4) 0.758(1)
C73 C 0.7088(4) 0.5488(6) 0.828(1)
S8 S 0.4431(1) 0.2574(1) 0.2677(10)
F4 F 0.4160(3) 0.1650(4) 0.351(1)
F5 F 0.5007(3) 0.1742(3) 0.339(1)
F6 F 0.4517(4) 0.1474(4) 0.235(1)
O4 O 0.3939(3) 0.2578(4) 0.225(1)
O5 O 0.4437(6) 0.2822(6) 0.340(1)
O6 O 0.4895(4) 0.2701(5) 0.214(1)
C74 C 0.4542(4) 0.1833(4) 0.302(1)
S9 S 0.53926(10) 0.6800(1) 0.3296(10)
F7 F 0.4523(5) 0.7017(6) 0.244(1)
F9 F 0.4863(7) 0.7709(7) 0.312(1)
F11 F 0.4453(6) 0.7041(7) 0.384(1)
O7 O 0.5706(7) 0.6974(7) 0.254(1)
O9 O 0.5656(6) 0.6979(7) 0.401(1)
O11 O 0.5281(6) 0.6153(6) 0.325(1)
C75 C 0.4741(4) 0.7114(4) 0.311(1)
O13 O 0.6167(3) 0.3274(2) 0.116(1)
C76 C 0.6254(5) 0.2664(4) 0.129(1)
O14 O 0.5857(3) 0.8214(4) 0.444(1)
C77 C 0.5380(5) 0.8323(7) 0.497(1)
O15 O 0.8615(3) 0.6937(3) 0.112(1)
C78 C 0.8443(5) 0.7537(5) 0.115(1)
O16 O 0.9735(5) 0.7953(5) -0.030(1)
C79 C 0.9931(8) 0.8416(7) 0.024(1)
O17 O 0.9602(4) 0.6951(5) 0.047(1)
C80 C 1.0058(8) 0.6687(9) 0.066(1)
O18 O 0.5082(4) 0.3332(4) 0.072(1)
O19 O 0.6095(5) 0.9073(7) 0.316(1)
F8? F 0.4624(5) 0.7354(6) 0.236(1)
F10? F 0.4521(5) 0.7478(5) 0.368(1)
F12? F 0.4334(6) 0.6659(6) 0.309(1)
O8? O 0.5500(6) 0.6472(7) 0.259(1)
O10? O 0.5665(8) 0.7434(9) 0.322(2)
O12? O 0.5380(8) 0.6672(9) 0.414(2)
loop_
_geom_bond_atom_site_label_1
_geom_bond_atom_site_label_2
_geom_bond_site_symmetry_1
_geom_bond_site_symmetry_2
Ag1 N1 1_555 1_555
Ag2 N2 1_555 1_555
Ag3 N3 1_555 1_555
S1 C7 1_555 1_555
S2 C17 1_555 1_555
S3 C27 1_555 1_555
S4 C43 1_555 1_555
S5 C53 1_555 1_555
S6 C63 1_555 1_555
S7 O1 1_555 1_555
S8 O4 1_555 1_555
S9 O7 1_555 1_555
F1 C73 1_555 1_555
F2 C73 1_555 1_555
F3 C73 1_555 1_555
F4 C74 1_555 1_555
F5 C74 1_555 1_555
F6 C74 1_555 1_555
F7 C75 1_555 1_555
F9 C75 1_555 1_555
F11 C75 1_555 1_555
O2 S7 1_555 1_555
O3 S7 1_555 1_555
O5 S8 1_555 1_555
O6 S8 1_555 1_555
O9 S9 1_555 1_555
O11 S9 1_555 1_555
O13 C76 1_555 1_555
O14 C77 1_555 1_555
O15 C78 1_555 1_555
O16 C79 1_555 1_555
O17 C80 1_555 1_555
N1 C7 1_555 1_555
N2 C17 1_555 1_555
N3 C27 1_555 1_555
N4 Ag1 1_555 1_555
N5 Ag2 1_555 1_555
N6 Ag3 1_555 1_555
C1 C2 1_555 1_555
C2 C3 1_555 1_555
C3 C4 1_555 1_555
C4 C5 1_555 1_555
C5 C6 1_555 1_555
C6 C1 1_555 1_555
C7 C1 1_555 1_555
C8 S1 1_555 1_555
C9 N1 1_555 1_555
C10 C2 1_555 1_555
C11 C10 1_555 1_555
C12 C11 1_555 1_555
C13 C12 1_555 1_555
C14 C13 1_555 1_555
C15 C10 1_555 1_555
C16 C13 1_555 1_555
C17 C3 1_555 1_555
C18 S2 1_555 1_555
C19 N2 1_555 1_555
C20 C4 1_555 1_555
C21 C20 1_555 1_555
C22 C21 1_555 1_555
C23 C22 1_555 1_555
C24 C23 1_555 1_555
C25 C20 1_555 1_555
C26 C23 1_555 1_555
C27 C5 1_555 1_555
C28 S3 1_555 1_555
C29 N3 1_555 1_555
C30 C6 1_555 1_555
C31 C30 1_555 1_555
C32 C31 1_555 1_555
C33 C32 1_555 1_555
C34 C33 1_555 1_555
C35 C30 1_555 1_555
C36 C33 1_555 1_555
C37 C38 1_555 1_555
C38 C39 1_555 1_555
C39 C40 1_555 1_555
C40 C41 1_555 1_555
C41 C42 1_555 1_555
C42 C37 1_555 1_555
C43 N4 1_555 1_555
C44 S4 1_555 1_555
C45 N4 1_555 1_555
C46 C38 1_555 1_555
C47 C46 1_555 1_555
C48 C47 1_555 1_555
C49 C48 1_555 1_555
C50 C49 1_555 1_555
C51 C46 1_555 1_555
C52 C49 1_555 1_555
C53 N5 1_555 1_555
C54 S5 1_555 1_555
C55 N5 1_555 1_555
C56 C40 1_555 1_555
C57 C56 1_555 1_555
C58 C57 1_555 1_555
C59 C58 1_555 1_555
C60 C59 1_555 1_555
C61 C56 1_555 1_555
C62 C59 1_555 1_555
C63 N6 1_555 1_555
C64 S6 1_555 1_555
C65 N6 1_555 1_555
C66 C42 1_555 1_555
C67 C66 1_555 1_555
C68 C67 1_555 1_555
C69 C68 1_555 1_555
C70 C69 1_555 1_555
C71 C66 1_555 1_555
C72 C69 1_555 1_555
C73 S7 1_555 1_555
C74 S8 1_555 1_555
C75 S9 1_555 1_555
H1 C8 1_555 1_555
H2 C9 1_555 1_555
H3 C11 1_555 1_555
H4 C12 1_555 1_555
H5 C14 1_555 1_555
H6 C15 1_555 1_555
H7 C16 1_555 1_555
H8 C16 1_555 1_555
H9 C16 1_555 1_555
H10 C18 1_555 1_555
H11 C19 1_555 1_555
H12 C21 1_555 1_555
H13 C22 1_555 1_555
H14 C24 1_555 1_555
H15 C25 1_555 1_555
H16 C26 1_555 1_555
H17 C26 1_555 1_555
H18 C26 1_555 1_555
H19 C28 1_555 1_555
H20 C29 1_555 1_555
H21 C31 1_555 1_555
H22 C32 1_555 1_555
H23 C34 1_555 1_555
H24 C35 1_555 1_555
H25 C36 1_555 1_555
H26 C36 1_555 1_555
H27 C36 1_555 1_555
H28 C44 1_555 1_555
H29 C45 1_555 1_555
H30 C47 1_555 1_555
H31 C48 1_555 1_555
H32 C50 1_555 1_555
H33 C51 1_555 1_555
H34 C52 1_555 1_555
H35 C52 1_555 1_555
H36 C52 1_555 1_555
H37 C54 1_555 1_555
H38 C55 1_555 1_555
H39 C57 1_555 1_555
H40 C58 1_555 1_555
H41 C60 1_555 1_555
H42 C61 1_555 1_555
H43 C62 1_555 1_555
H44 C62 1_555 1_555
H45 C62 1_555 1_555
H46 C64 1_555 1_555
H47 C65 1_555 1_555
H48 C67 1_555 1_555
H49 C68 1_555 1_555
H50 C70 1_555 1_555
H51 C71 1_555 1_555
H52 C72 1_555 1_555
H53 C72 1_555 1_555
H54 C72 1_555 1_555
C8 C9 1_555 1_555
C14 C15 1_555 1_555
C18 C19 1_555 1_555
C24 C25 1_555 1_555
C28 C29 1_555 1_555
C34 C35 1_555 1_555
C37 C43 1_555 1_555
C39 C53 1_555 1_555
C41 C63 1_555 1_555
C44 C45 1_555 1_555
C50 C51 1_555 1_555
C54 C55 1_555 1_555
C60 C61 1_555 1_555
C64 C65 1_555 1_555
C70 C71 1_555 1_555

#END
