
#######################################################################
#
#                 Cambridge Crystallographic Data Centre
#                                CCDC 
#
#######################################################################
#
# If this CIF has been generated from an entry in the Cambridge 
# Structural Database, then it will include bibliographic, chemical, 
# crystal, experimental, refinement or atomic coordinate data resulting 
# from the CCDC's data processing and validation procedures.
#
#######################################################################

data_OTEBUL
_chemical_formula_moiety         
'C120 H114 N6 O12 Ru6 6+,6(Cl1 O4 1-),C1 H3 N1 O2,4(H2 O1)'
_chemical_name_systematic        
'bis(\m~3~-1,3,5-tris(2-(4-Pyridyl)ethynyl)benzene)-tris(\m~2~-oxalato)-hexakis(\h^6^-p-cymene)-hexa-ruthenium hexaperchlorate nitromethane solvate tetrahydrate'
_symmetry_cell_setting           triclinic
_symmetry_space_group_name_H-M   'P -1'
_symmetry_Int_Tables_number      2
_space_group_name_Hall           '-P 1'
loop_
_symmetry_equiv_pos_site_id
_symmetry_equiv_pos_as_xyz
1 x,y,z
2 -x,-y,-z
_cell_length_a                   13.181(3)
_cell_length_b                   23.307(5)
_cell_length_c                   25.698(5)
_cell_angle_alpha                107.76(3)
_cell_angle_beta                 102.02(3)
_cell_angle_gamma                98.37(3)
_cell_volume                     7165.93
_exptl_crystal_description       needle
_cell_formula_units_Z            2
loop_
_atom_site_label
_atom_site_type_symbol
_atom_site_fract_x
_atom_site_fract_y
_atom_site_fract_z
Ru1 Ru 1.09692(11) 0.96346(4) 0.33815(5)
Ru2 Ru 0.73118(11) 0.35795(5) -0.39432(5)
Ru3 Ru 1.07762(12) 0.21447(5) 0.23623(6)
Ru4 Ru 0.31477(12) 0.27587(5) -0.40618(6)
Ru5 Ru 0.73305(13) 0.28944(6) 0.29810(6)
Ru6 Ru 0.69923(12) 0.98155(6) 0.23440(6)
O1 O 0.5870(9) 0.3849(4) -0.4053(4)
O2 O 0.6307(10) 0.2803(4) -0.3938(4)
O3 O 0.4102(10) 0.3478(4) -0.4185(4)
O4 O 0.4585(8) 0.2475(4) -0.3998(4)
O5 O 0.9119(9) 0.1816(4) 0.2172(5)
O6 O 1.0441(11) 0.2812(5) 0.3008(5)
O7 O 0.8958(9) 0.3162(4) 0.3210(4)
O8 O 0.7669(10) 0.2153(4) 0.2410(4)
O9 O 0.9370(8) 0.9451(4) 0.3411(4)
O10 O 1.0209(10) 0.9954(4) 0.2746(4)
O11 O 0.7751(10) 0.9528(4) 0.2992(4)
O12 O 0.8557(9) 0.9999(4) 0.2303(5)
N1 N 1.0513(11) 0.8782(5) 0.2693(5)
N2 N 0.7399(10) 0.3895(5) -0.3060(5)
N3 N 1.0403(12) 0.2714(5) 0.1906(6)
N4 N 0.3848(11) 0.3301(5) -0.3208(5)
N5 N 0.6921(12) 0.8902(6) 0.1841(6)
N6 N 0.7395(10) 0.3330(5) 0.2394(6)
C1 C 1.0921(14) 0.8718(6) 0.2253(8)
H1 H 1.1388 0.9063 0.2243
C2 C 0.9949(16) 0.8285(6) 0.2713(8)
H2 H 0.9723 0.8313 0.3045
C3 C 1.0671(15) 0.8146(7) 0.1800(7)
H3 H 1.0943 0.8112 0.1480
C4 C 0.9672(19) 0.7741(7) 0.2292(8)
H4 H 0.9201 0.7410 0.2322
C5 C 1.0031(14) 0.7642(6) 0.1829(7)
C6 C 0.9767(13) 0.7050(6) 0.1398(6)
C7 C 0.9511(14) 0.6498(5) 0.1028(6)
C8 C 0.9292(13) 0.5898(6) 0.0713(6)
C9 C 0.8885(12) 0.5692(6) 0.0150(6)
H5 H 0.8769 0.5987 -0.0030
C10 C 0.8619(12) 0.5064(6) -0.0190(6)
C11 C 0.8789(11) 0.4641(6) 0.0079(6)
H6 H 0.8621 0.4212 -0.0137
C12 C 0.9198(12) 0.4839(6) 0.0655(6)
C13 C 0.9422(12) 0.5453(6) 0.0970(6)
H7 H 0.9672 0.5582 0.1372
C14 C 0.8266(12) 0.4838(6) -0.0784(7)
C15 C 0.7962(11) 0.4611(6) -0.1296(7)
C16 C 0.7718(11) 0.4352(6) -0.1913(6)
C17 C 0.7305(11) 0.4673(6) -0.2238(6)
H8 H 0.7138 0.5057 -0.2065
C18 C 0.7897(14) 0.3784(6) -0.2165(7)
H9 H 0.8119 0.3539 -0.1947
C19 C 0.7130(12) 0.4436(6) -0.2818(7)
H10 H 0.6823 0.4651 -0.3048
C20 C 0.7748(14) 0.3575(6) -0.2746(7)
H11 H 0.7903 0.3188 -0.2924
C21 C 0.9397(12) 0.4378(6) 0.0928(6)
C22 C 0.9562(13) 0.3998(6) 0.1123(6)
C23 C 0.9878(14) 0.3574(6) 0.1401(7)
C24 C 0.9241(13) 0.2971(7) 0.1180(7)
H12 H 0.8639 0.2848 0.0861
C25 C 1.0701(14) 0.3737(7) 0.1861(7)
H13 H 1.1088 0.4155 0.2027
C26 C 1.1009(15) 0.3297(7) 0.2106(8)
H14 H 1.1637 0.3412 0.2409
C27 C 0.9537(15) 0.2561(6) 0.1451(8)
H15 H 0.9111 0.2152 0.1312
C28 C 0.3763(12) 0.3907(6) -0.3038(6)
H16 H 0.3415 0.4080 -0.3296
C29 C 0.4424(13) 0.3041(7) -0.2847(7)
H17 H 0.4518 0.2631 -0.2996
C30 C 0.4201(13) 0.4242(7) -0.2486(7)
H18 H 0.4120 0.4656 -0.2357
C31 C 0.4844(13) 0.3377(7) -0.2288(7)
H19 H 0.5173 0.3189 -0.2038
C32 C 0.4792(13) 0.4019(7) -0.2070(7)
C33 C 0.5214(16) 0.4375(7) -0.1490(8)
C34 C 0.5608(14) 0.4637(7) -0.1002(8)
C35 C 0.5979(11) 0.4947(7) -0.0406(7)
C36 C 0.6157(13) 0.5586(7) -0.0175(7)
H20 H 0.6046 0.5823 -0.0415
C37 C 0.6509(13) 0.5883(7) 0.0426(7)
C38 C 0.6750(12) 0.5521(7) 0.0742(7)
H21 H 0.7037 0.5715 0.1140
C39 C 0.6601(14) 0.4901(7) 0.0517(7)
C40 C 0.6659(14) 0.6506(6) 0.0657(6)
C41 C 0.6747(15) 0.7090(7) 0.0908(7)
C42 C 0.6836(16) 0.7689(7) 0.1226(9)
C43 C 0.6421(17) 0.7810(8) 0.1676(8)
H22 H 0.6128 0.7483 0.1786
C44 C 0.7325(13) 0.8181(7) 0.1092(7)
H23 H 0.7638 0.8108 0.0784
C45 C 0.7338(16) 0.8768(8) 0.1419(8)
H24 H 0.7676 0.9101 0.1330
C46 C 0.6792(14) 0.4546(7) 0.0895(7)
C47 C 0.6961(16) 0.4257(8) 0.1200(8)
C48 C 0.7124(12) 0.3950(7) 0.1592(7)
C49 C 0.7589(12) 0.4246(8) 0.2175(8)
H25 H 0.7821 0.4683 0.2321
C50 C 0.6798(12) 0.3298(7) 0.1423(7)
H26 H 0.6464 0.3058 0.1035
C51 C 0.7716(12) 0.3935(7) 0.2528(7)
H27 H 0.8070 0.4168 0.2914
C52 C 0.6966(13) 0.3012(8) 0.1819(8)
H28 H 0.6777 0.2573 0.1692
C53 C 1.1060(14) 0.1236(7) 0.1982(8)
C54 C 1.1149(14) 0.1337(7) 0.2559(8)
H29 H 1.0632 0.1079 0.2678
C55 C 1.1663(14) 0.1674(7) 0.1804(8)
H30 H 1.1482 0.1640 0.1396
C56 C 1.2345(14) 0.2210(8) 0.2217(8)
H31 H 1.2624 0.2554 0.2093
C57 C 1.1839(13) 0.1888(7) 0.2956(8)
H32 H 1.1756 0.2010 0.3350
C58 C 1.2418(14) 0.2347(8) 0.2818(8)
C59 C 1.0255(16) 0.0675(7) 0.1557(8)
H33 H 0.9641 0.0615 0.1723
C60 C 0.9798(16) 0.0695(8) 0.0969(8)
H34 H 0.9303 0.0301 0.0731
H35 H 1.0378 0.0767 0.0796
H36 H 0.9419 0.1031 0.1001
C61 C 0.2165(14) 0.1947(8) -0.4075(9)
C62 C 0.2246(15) 0.1867(7) -0.4642(8)
H37 H 0.2667 0.1564 -0.4795
C63 C 0.2083(11) 0.2272(6) -0.4905(7)
H38 H 0.2369 0.2245 -0.5241
C64 C 0.1733(16) 0.2441(7) -0.3849(8)
H39 H 0.1769 0.2560 -0.3436
C65 C 0.1527(15) 0.2896(8) -0.4114(8)
H40 H 0.1395 0.3301 -0.3895
C66 C 0.1755(16) 0.2798(7) -0.4656(8)
C67 C 0.1672(17) 0.3323(8) -0.4931(8)
H41 H 0.2043 0.3727 -0.4624
C68 C 0.0510(18) 0.3347(9) -0.5119(9)
H42 H 0.0462 0.3685 -0.5269
H43 H 0.0205 0.3418 -0.4795
H44 H 0.0115 0.2955 -0.5416
C69 C 0.9766(18) 0.5232(8) -0.3861(12)
H45 H 1.0342 0.5023 -0.3783
H46 H 1.0018 0.5677 -0.3655
H47 H 0.9540 0.5155 -0.4269
C70 C 0.7455(14) 0.3364(7) -0.4820(7)
H48 H 0.6806 0.3171 -0.5148
C71 C 0.7976(13) 0.2986(6) -0.4559(7)
C72 C 0.8779(14) 0.3273(7) -0.4019(7)
H49 H 0.9022 0.3004 -0.3803
C73 C 0.9072(15) 0.3911(7) -0.3746(7)
H50 H 0.9496 0.4079 -0.3340
C74 C 0.8575(15) 0.4309(7) -0.3976(7)
C75 C 0.7708(14) 0.4010(6) -0.4526(7)
H51 H 0.7235 0.4266 -0.4656
C76 C 0.7691(16) 0.2309(6) -0.4829(7)
H52 H 0.7149 0.2193 -0.5190
H53 H 0.7409 0.2124 -0.4578
H54 H 0.8325 0.2159 -0.4898
C77 C 0.8884(16) 0.4998(7) -0.3682(9)
H55 H 0.9120 0.5090 -0.3264
C78 C 0.7963(16) 0.5329(8) -0.3809(9)
H56 H 0.7362 0.5171 -0.3684
H57 H 0.7732 0.5248 -0.4218
H58 H 0.8215 0.5775 -0.3606
C79 C 0.8633(17) 0.2187(7) 0.2460(7)
C80 C 0.722(2) 0.3419(8) 0.3794(8)
C81 C 0.6439(18) 0.3494(9) 0.3374(9)
H59 H 0.6471 0.3908 0.3331
C82 C 0.5885(17) 0.2400(8) 0.2990(9)
C83 C 0.6638(15) 0.2330(7) 0.3398(8)
H60 H 0.6800 0.1918 0.3375
C84 C 0.7234(15) 0.2834(7) 0.3756(9)
H61 H 0.7904 0.2785 0.3989
C85 C 0.5715(16) 0.2957(8) 0.2949(9)
H62 H 0.5223 0.2982 0.2607
C86 C 0.5233(15) 0.1747(8) 0.2456(8)
H63 H 0.5759 0.1495 0.2348
C87 C 0.4639(16) 0.1888(10) 0.1912(9)
H64 H 0.5163 0.2120 0.1788
H65 H 0.4118 0.2132 0.2012
H66 H 0.4273 0.1497 0.1604
C88 C 0.4411(13) 0.1368(8) 0.2648(8)
H67 H 0.4044 0.0981 0.2335
H68 H 0.3890 0.1609 0.2756
H69 H 0.4779 0.1274 0.2974
C89 C 0.9501(18) 0.2777(7) 0.2968(8)
C90 C 1.0725(19) 0.0081(8) 0.1482(9)
H70 H 1.0198 -0.0278 0.1199
H71 H 1.0898 0.0013 0.1845
H72 H 1.1371 0.0138 0.1355
C91 C 1.3082(14) 0.2945(7) 0.3257(8)
H73 H 1.3045 0.2948 0.3635
H74 H 1.2812 0.3291 0.3185
H75 H 1.3823 0.2986 0.3239
C92 C 0.6233(13) 0.4595(7) -0.0062(7)
H76 H 0.6154 0.4161 -0.0222
C93 C 0.6427(15) 0.8435(7) 0.1983(8)
H77 H 0.6094 0.8526 0.2283
C94 C 1.2104(11) 0.9374(6) 0.3949(7)
H78 H 1.2001 0.8930 0.3918
C95 C 1.1564(14) 0.9746(7) 0.4268(7)
C96 C 1.1512(13) 1.0311(6) 0.4219(6)
H79 H 1.0985 1.0529 0.4377
C97 C 1.1995(13) 1.0533(6) 0.3880(6)
H80 H 1.1804 1.0904 0.3801
C98 C 1.2592(12) 1.0168(6) 0.3527(7)
C99 C 1.2670(13) 0.9577(6) 0.3601(7)
H81 H 1.2927 0.9269 0.3323
C100 C 1.3041(13) 1.0388(7) 0.3134(7)
H82 H 1.2924 1.0803 0.3171
H83 H 1.2695 1.0106 0.2745
H84 H 1.3807 1.0404 0.3220
C101 C 1.0921(15) 0.9503(7) 0.4635(7)
H85 H 1.0267 0.9674 0.4626
C102 C 1.0604(15) 0.8805(7) 0.4484(9)
H86 H 1.0125 0.8710 0.4706
H87 H 1.1242 0.8645 0.4570
H88 H 1.0240 0.8612 0.4079
C103 C 0.6825(13) 1.0647(7) 0.2208(8)
H89 H 0.7451 1.0887 0.2143
C104 C 0.6167(16) 1.0196(7) 0.1759(8)
C105 C 0.5350(14) 0.9765(7) 0.1888(8)
H90 H 0.4941 0.9369 0.1580
C106 C 0.5440(18) 0.9808(10) 0.2421(10)
H91 H 0.5063 0.9445 0.2489
C107 C 0.6132(18) 1.0263(10) 0.2877(9)
C108 C 0.6853(17) 1.0715(9) 0.2790(9)
H92 H 0.7453 1.1009 0.3111
C109 C 0.6181(19) 1.0259(11) 0.3492(9)
H93 H 0.6681 1.0632 0.3770
H94 H 0.6421 0.9892 0.3534
H95 H 0.5472 1.0249 0.3555
C110 C 0.5384(17) 0.2837(6) -0.4000(6)
C111 C 0.5056(16) 0.3448(7) -0.4092(6)
C112 C 0.2461(16) 0.1496(8) -0.3764(8)
H96 H 0.2319 0.1628 -0.3391
H97 H 0.3219 0.1496 -0.3716
H98 H 0.2034 0.1078 -0.3989
C113 C 0.715(2) 1.0337(10) 0.1070(10)
H99 H 0.7092 1.0270 0.0669
H100 H 0.7675 1.0127 0.1212
H101 H 0.7364 1.0781 0.1289
C114 C 0.8763(17) 0.9603(6) 0.3072(7)
C115 C 0.9181(18) 0.9886(7) 0.2662(7)
C116 C 0.6145(19) 1.0095(8) 0.1130(9)
H102 H 0.5932 0.9642 0.0908
C117 C 0.522(2) 1.0424(12) 0.0904(11)
H103 H 0.4544 1.0243 0.0955
H104 H 0.5141 1.0359 0.0501
H105 H 0.5418 1.0869 0.1121
C118 C 1.1670(17) 0.9771(10) 0.5265(8)
H106 H 1.1304 0.9631 0.5515
H107 H 1.1837 1.0223 0.5396
H108 H 1.2330 0.9623 0.5274
C119 C 0.2250(16) 0.3241(8) -0.5369(8)
H109 H 0.2993 0.3248 -0.5202
H110 H 0.2222 0.3577 -0.5522
H111 H 0.1920 0.2844 -0.5674
C120 C 0.8035(17) 0.3997(8) 0.4184(8)
H112 H 0.8561 0.3889 0.4447
H113 H 0.7682 0.4291 0.4399
H114 H 0.8393 0.4185 0.3958
Cl1 Cl -0.0441(4) 0.15182(15) -0.61528(19)
O13 O -0.0854(8) 0.0879(4) -0.6349(4)
O14 O -0.0498(10) 0.1759(6) -0.5580(5)
O15 O -0.1018(10) 0.1805(6) -0.6480(6)
O16 O 0.0655(8) 0.1656(5) -0.6135(4)
Cl2 Cl 0.5783(5) 0.5948(2) -0.2365(3)
O17 O 0.6007(12) 0.6613(4) -0.2134(6)
O18 O 0.5894(10) 0.5710(5) -0.1911(5)
O19 O 0.6523(9) 0.5772(5) -0.2685(5)
O20 O 0.4724(9) 0.5741(6) -0.2710(6)
Cl3 Cl 0.1185(5) 0.3817(2) -0.2605(2)
O21 O 0.188(2) 0.3413(12) -0.2550(14)
O22 O 0.0137(14) 0.3737(16) -0.2561(13)
O23 O 0.126(3) 0.4095(14) -0.3020(11)
O24 O 0.181(2) 0.4273(10) -0.2073(7)
Cl4 Cl 1.3807(5) 0.8227(2) 0.2669(2)
O25 O 1.4933(11) 0.8374(12) 0.2915(11)
O26 O 1.3501(16) 0.8679(7) 0.2453(8)
O27 O 1.349(2) 0.7628(6) 0.2262(7)
O28 O 1.3301(16) 0.8218(9) 0.3123(7)
Cl5 Cl 0.717(2) 0.6983(14) -0.0708(14)
O29 O 0.766(4) 0.720(2) -0.1077(18)
O30 O 0.606(2) 0.6930(13) -0.0786(12)
O31 O 0.776(4) 0.652(2) -0.082(2)
O32 O 0.782(2) 0.7552(13) -0.0287(13)
Cl6 Cl 0.6309(8) 0.1757(3) 0.0268(3)
O33 O 0.5774(17) 0.1829(10) 0.0704(8)
O34 O 0.622(2) 0.2246(9) 0.0056(11)
O35 O 0.7391(13) 0.1762(13) 0.0486(12)
O36 O 0.5820(14) 0.1181(7) -0.0179(7)
N7 N 0.767(2) 0.9033(11) -0.0058(12)
O37 O 0.792(2) 0.9085(11) -0.0500(11)
O38 O 0.8224(18) 0.9168(10) 0.0427(10)
C121 C 0.664(3) 0.8759(18) -0.0199(16)
H115 H 0.6476 0.8656 0.0121
H116 H 0.6491 0.8379 -0.0528
H117 H 0.6208 0.9039 -0.0292
O39 O 0.647(3) 0.5108(14) 0.4453(16)
O40 O 0.505(3) 0.4941(13) 0.4040(13)
O41 O 0.969(4) 0.818(2) -0.028(2)
O42 O 1.2018(19) 0.7890(9) 0.3521(9)
O43? O 0.602(3) 0.481(2) 0.4719(17)
O44? O 0.910(5) 0.790(2) 0.009(2)
O45? O 0.981(5) 0.753(3) 0.006(2)
O46? O 0.1965(14) 0.3721(10) -0.2188(8)
O47? O 0.1668(19) 0.4114(11) -0.2929(9)
O48? O 0.0516(15) 0.3230(6) -0.2979(7)
O49? O 1.2812(15) 0.7829(12) 0.2535(13)
O50? O 1.450(2) 0.7916(11) 0.2397(11)
O51? O 1.365(3) 0.8720(12) 0.2452(15)
O52? O 1.426(3) 0.8488(14) 0.3259(7)
O53? O 0.0527(18) 0.4187(10) -0.2342(10)
loop_
_geom_bond_atom_site_label_1
_geom_bond_atom_site_label_2
_geom_bond_site_symmetry_1
_geom_bond_site_symmetry_2
Ru1 O9 1_555 1_555
Ru2 O1 1_555 1_555
Ru3 O5 1_555 1_555
Ru4 O3 1_555 1_555
Ru5 O7 1_555 1_555
Ru6 O11 1_555 1_555
O1 C111 1_555 1_555
O2 Ru2 1_555 1_555
O3 C111 1_555 1_555
O4 Ru4 1_555 1_555
O5 C79 1_555 1_555
O6 Ru3 1_555 1_555
O7 C89 1_555 1_555
O8 Ru5 1_555 1_555
O9 C114 1_555 1_555
O10 Ru1 1_555 1_555
O11 C114 1_555 1_555
O12 Ru6 1_555 1_555
N1 Ru1 1_555 1_555
N2 Ru2 1_555 1_555
N3 Ru3 1_555 1_555
N4 Ru4 1_555 1_555
N5 Ru6 1_555 1_555
N6 Ru5 1_555 1_555
C1 N1 1_555 1_555
H1 C1 1_555 1_555
C2 N1 1_555 1_555
H2 C2 1_555 1_555
C3 C1 1_555 1_555
H3 C3 1_555 1_555
C4 C2 1_555 1_555
H4 C4 1_555 1_555
C5 C3 1_555 1_555
C6 C5 1_555 1_555
C7 C6 1_555 1_555
C8 C7 1_555 1_555
C9 C8 1_555 1_555
H5 C9 1_555 1_555
C10 C9 1_555 1_555
C11 C10 1_555 1_555
H6 C11 1_555 1_555
C12 C11 1_555 1_555
C13 C8 1_555 1_555
H7 C13 1_555 1_555
C14 C10 1_555 1_555
C15 C14 1_555 1_555
C16 C15 1_555 1_555
C17 C16 1_555 1_555
H8 C17 1_555 1_555
C18 C16 1_555 1_555
H9 C18 1_555 1_555
C19 N2 1_555 1_555
H10 C19 1_555 1_555
C20 N2 1_555 1_555
H11 C20 1_555 1_555
C21 C12 1_555 1_555
C22 C21 1_555 1_555
C23 C22 1_555 1_555
C24 C23 1_555 1_555
H12 C24 1_555 1_555
C25 C23 1_555 1_555
H13 C25 1_555 1_555
C26 N3 1_555 1_555
H14 C26 1_555 1_555
C27 N3 1_555 1_555
H15 C27 1_555 1_555
C28 N4 1_555 1_555
H16 C28 1_555 1_555
C29 N4 1_555 1_555
H17 C29 1_555 1_555
C30 C28 1_555 1_555
H18 C30 1_555 1_555
C31 C29 1_555 1_555
H19 C31 1_555 1_555
C32 C30 1_555 1_555
C33 C32 1_555 1_555
C34 C33 1_555 1_555
C35 C34 1_555 1_555
C36 C35 1_555 1_555
H20 C36 1_555 1_555
C37 C36 1_555 1_555
C38 C37 1_555 1_555
H21 C38 1_555 1_555
C39 C38 1_555 1_555
C40 C37 1_555 1_555
C41 C40 1_555 1_555
C42 C41 1_555 1_555
C43 C42 1_555 1_555
H22 C43 1_555 1_555
C44 C42 1_555 1_555
H23 C44 1_555 1_555
C45 N5 1_555 1_555
H24 C45 1_555 1_555
C46 C39 1_555 1_555
C47 C46 1_555 1_555
C48 C47 1_555 1_555
C49 C48 1_555 1_555
H25 C49 1_555 1_555
C50 C48 1_555 1_555
H26 C50 1_555 1_555
C51 N6 1_555 1_555
H27 C51 1_555 1_555
C52 N6 1_555 1_555
H28 C52 1_555 1_555
C53 Ru3 1_555 1_555
C54 Ru3 1_555 1_555
H29 C54 1_555 1_555
C55 Ru3 1_555 1_555
H30 C55 1_555 1_555
C56 Ru3 1_555 1_555
H31 C56 1_555 1_555
C57 Ru3 1_555 1_555
H32 C57 1_555 1_555
C58 Ru3 1_555 1_555
C59 C53 1_555 1_555
H33 C59 1_555 1_555
C60 C59 1_555 1_555
H34 C60 1_555 1_555
H35 C60 1_555 1_555
H36 C60 1_555 1_555
C61 Ru4 1_555 1_555
C62 Ru4 1_555 1_555
H37 C62 1_555 1_555
C63 Ru4 1_555 1_555
H38 C63 1_555 1_555
C64 Ru4 1_555 1_555
H39 C64 1_555 1_555
C65 Ru4 1_555 1_555
H40 C65 1_555 1_555
C66 Ru4 1_555 1_555
C67 C66 1_555 1_555
H41 C67 1_555 1_555
C68 C67 1_555 1_555
H42 C68 1_555 1_555
H43 C68 1_555 1_555
H44 C68 1_555 1_555
C69 H45 1_555 1_555
H46 C69 1_555 1_555
H47 C69 1_555 1_555
C70 Ru2 1_555 1_555
H48 C70 1_555 1_555
C71 Ru2 1_555 1_555
C72 Ru2 1_555 1_555
H49 C72 1_555 1_555
C73 Ru2 1_555 1_555
H50 C73 1_555 1_555
C74 Ru2 1_555 1_555
C75 Ru2 1_555 1_555
H51 C75 1_555 1_555
C76 C71 1_555 1_555
H52 C76 1_555 1_555
H53 C76 1_555 1_555
H54 C76 1_555 1_555
C77 C69 1_555 1_555
H55 C77 1_555 1_555
C78 C77 1_555 1_555
H56 C78 1_555 1_555
H57 C78 1_555 1_555
H58 C78 1_555 1_555
C79 O8 1_555 1_555
C80 Ru5 1_555 1_555
C81 Ru5 1_555 1_555
H59 C81 1_555 1_555
C82 Ru5 1_555 1_555
C83 Ru5 1_555 1_555
H60 C83 1_555 1_555
C84 Ru5 1_555 1_555
H61 C84 1_555 1_555
C85 Ru5 1_555 1_555
H62 C85 1_555 1_555
C86 C82 1_555 1_555
H63 C86 1_555 1_555
C87 C86 1_555 1_555
H64 C87 1_555 1_555
H65 C87 1_555 1_555
H66 C87 1_555 1_555
C88 C86 1_555 1_555
H67 C88 1_555 1_555
H68 C88 1_555 1_555
H69 C88 1_555 1_555
C89 O6 1_555 1_555
C90 C59 1_555 1_555
H70 C90 1_555 1_555
H71 C90 1_555 1_555
H72 C90 1_555 1_555
C91 C58 1_555 1_555
H73 C91 1_555 1_555
H74 C91 1_555 1_555
H75 C91 1_555 1_555
C92 C35 1_555 1_555
H76 C92 1_555 1_555
C93 N5 1_555 1_555
H77 C93 1_555 1_555
C94 Ru1 1_555 1_555
H78 C94 1_555 1_555
C95 Ru1 1_555 1_555
C96 Ru1 1_555 1_555
H79 C96 1_555 1_555
C97 Ru1 1_555 1_555
H80 C97 1_555 1_555
C98 Ru1 1_555 1_555
C99 Ru1 1_555 1_555
H81 C99 1_555 1_555
C100 C98 1_555 1_555
H82 C100 1_555 1_555
H83 C100 1_555 1_555
H84 C100 1_555 1_555
C101 C95 1_555 1_555
H85 C101 1_555 1_555
C102 C101 1_555 1_555
H86 C102 1_555 1_555
H87 C102 1_555 1_555
H88 C102 1_555 1_555
C103 Ru6 1_555 1_555
H89 C103 1_555 1_555
C104 Ru6 1_555 1_555
C105 Ru6 1_555 1_555
H90 C105 1_555 1_555
C106 Ru6 1_555 1_555
H91 C106 1_555 1_555
C107 Ru6 1_555 1_555
C108 Ru6 1_555 1_555
H92 C108 1_555 1_555
C109 C107 1_555 1_555
H93 C109 1_555 1_555
H94 C109 1_555 1_555
H95 C109 1_555 1_555
C110 O2 1_555 1_555
C111 C110 1_555 1_555
C112 C61 1_555 1_555
H96 C112 1_555 1_555
H97 C112 1_555 1_555
H98 C112 1_555 1_555
C113 H99 1_555 1_555
H100 C113 1_555 1_555
H101 C113 1_555 1_555
C114 C115 1_555 1_555
C115 O10 1_555 1_555
C116 C104 1_555 1_555
H102 C116 1_555 1_555
C117 C116 1_555 1_555
H103 C117 1_555 1_555
H104 C117 1_555 1_555
H105 C117 1_555 1_555
C118 C101 1_555 1_555
H106 C118 1_555 1_555
H107 C118 1_555 1_555
H108 C118 1_555 1_555
C119 C67 1_555 1_555
H109 C119 1_555 1_555
H110 C119 1_555 1_555
H111 C119 1_555 1_555
C120 C80 1_555 1_555
H112 C120 1_555 1_555
H113 C120 1_555 1_555
H114 C120 1_555 1_555
Cl1 O13 1_555 1_555
O14 Cl1 1_555 1_555
O15 Cl1 1_555 1_555
O16 Cl1 1_555 1_555
Cl2 O17 1_555 1_555
O18 Cl2 1_555 1_555
O19 Cl2 1_555 1_555
O20 Cl2 1_555 1_555
Cl3 O21 1_555 1_555
O22 Cl3 1_555 1_555
O23 Cl3 1_555 1_555
O24 Cl3 1_555 1_555
Cl4 O25 1_555 1_555
O26 Cl4 1_555 1_555
O27 Cl4 1_555 1_555
O28 Cl4 1_555 1_555
Cl5 O29 1_555 1_555
O30 Cl5 1_555 1_555
O31 Cl5 1_555 1_555
O32 Cl5 1_555 1_555
Cl6 O33 1_555 1_555
O34 Cl6 1_555 1_555
O35 Cl6 1_555 1_555
O36 Cl6 1_555 1_555
N7 O37 1_555 1_555
O38 N7 1_555 1_555
C121 N7 1_555 1_555
H115 C121 1_555 1_555
H116 C121 1_555 1_555
H117 C121 1_555 1_555
O4 C110 1_555 1_555
O12 C115 1_555 1_555
C4 C5 1_555 1_555
C12 C13 1_555 1_555
C17 C19 1_555 1_555
C18 C20 1_555 1_555
C24 C27 1_555 1_555
C25 C26 1_555 1_555
C31 C32 1_555 1_555
C39 C92 1_555 1_555
C43 C93 1_555 1_555
C44 C45 1_555 1_555
C49 C51 1_555 1_555
C50 C52 1_555 1_555
C53 C54 1_555 1_555
C53 C55 1_555 1_555
C54 C57 1_555 1_555
C55 C56 1_555 1_555
C56 C58 1_555 1_555
C57 C58 1_555 1_555
C61 C62 1_555 1_555
C61 C64 1_555 1_555
C62 C63 1_555 1_555
C63 C66 1_555 1_555
C64 C65 1_555 1_555
C65 C66 1_555 1_555
C70 C71 1_555 1_555
C70 C75 1_555 1_555
C71 C72 1_555 1_555
C72 C73 1_555 1_555
C73 C74 1_555 1_555
C74 C75 1_555 1_555
C74 C77 1_555 1_555
C79 C89 1_555 1_555
C80 C81 1_555 1_555
C80 C84 1_555 1_555
C81 C85 1_555 1_555
C82 C83 1_555 1_555
C82 C85 1_555 1_555
C83 C84 1_555 1_555
C94 C95 1_555 1_555
C94 C99 1_555 1_555
C95 C96 1_555 1_555
C96 C97 1_555 1_555
C97 C98 1_555 1_555
C98 C99 1_555 1_555
C103 C104 1_555 1_555
C103 C108 1_555 1_555
C104 C105 1_555 1_555
C105 C106 1_555 1_555
C106 C107 1_555 1_555
C107 C108 1_555 1_555
C113 C116 1_555 1_555

#END
