
#######################################################################
#
#                 Cambridge Crystallographic Data Centre
#                                CCDC 
#
#######################################################################
#
# If this CIF has been generated from an entry in the Cambridge 
# Structural Database, then it will include bibliographic, chemical, 
# crystal, experimental, refinement or atomic coordinate data resulting 
# from the CCDC's data processing and validation procedures.
#
#######################################################################

data_PECQIA
_chemical_formula_moiety         
'C150 H120 N20 O20 Pd5 10+,x(C2 H6 O1 S1),10(B1 F4 1-)'
_chemical_name_systematic        
"pentakis(\m-4,4'-bipyridine)-pentakis(\m-(1,4-phenylene)bis(methylene) dipyridine-4-carboxylate)-penta-palladium(ii) decakis(tetrafluoroborate) dimethyl sulfoxide solvate"
_symmetry_cell_setting           orthorhombic
_symmetry_space_group_name_H-M   'P n m a'
_symmetry_Int_Tables_number      62
_space_group_name_Hall           '-P 2ac 2n'
loop_
_symmetry_equiv_pos_site_id
_symmetry_equiv_pos_as_xyz
1 x,y,z
2 1/2-x,-y,1/2+z
3 -x,1/2+y,-z
4 1/2+x,1/2-y,1/2-z
5 -x,-y,-z
6 1/2+x,y,1/2-z
7 x,1/2-y,z
8 1/2-x,1/2+y,1/2+z
_cell_length_a                   18.5056(12)
_cell_length_b                   57.542(4)
_cell_length_c                   29.207(3)
_cell_angle_alpha                90
_cell_angle_beta                 90
_cell_angle_gamma                90
_cell_volume                     31101.1
_exptl_crystal_colour            colorless
_exptl_crystal_description       Prism
_cell_formula_units_Z            4
loop_
_atom_site_label
_atom_site_type_symbol
_atom_site_fract_x
_atom_site_fract_y
_atom_site_fract_z
Pd1 Pd 0.15548(3) 0.65433(2) 0.29270(2)
Pd2 Pd 0.57607(3) 0.60134(2) 0.53637(2)
Pd3 Pd 0.83916(6) 0.7500 0.70464(4)
C1 C -0.1625(6) 0.73677(18) 0.0973(4)
H1 H -0.1991 0.7290 0.1127
C2 C -0.1146(4) 0.72510(11) 0.0772(3)
C3 C -0.0643(6) 0.73710(15) 0.0549(4)
H2 H -0.0284 0.7292 0.0390
C4 C -0.1148(4) 0.69952(12) 0.0756(3)
H3 H -0.1026 0.6944 0.0449
H4 H -0.1630 0.6939 0.0826
O1 O -0.0629(3) 0.68932(9) 0.1084(2)
O2 O -0.1408(3) 0.69039(8) 0.16771(18)
C5 C -0.0833(4) 0.68620(11) 0.1512(3)
C6 C 0.0966(4) 0.66507(12) 0.2015(3)
H5 H 0.1439 0.6624 0.1922
C7 C 0.0489(4) 0.67261(12) 0.1710(3)
H6 H 0.0634 0.6758 0.1412
C8 C -0.0244(4) 0.67573(11) 0.1841(2)
C9 C -0.0430(3) 0.67058(11) 0.2279(3)
H7 H -0.0906 0.6723 0.2375
C10 C 0.0086(4) 0.66278(12) 0.2582(3)
H8 H -0.0049 0.6586 0.2877
N1 N 0.0789(3) 0.66111(9) 0.2454(2)
N2 N 0.1649(3) 0.68896(9) 0.30166(19)
C11 C 0.1191(5) 0.70068(14) 0.3251(3)
H9 H 0.0822 0.6926 0.3398
C12 C 0.1213(5) 0.72446(12) 0.3298(3)
H10 H 0.0885 0.7320 0.3488
C13 C 0.1724(3) 0.73719(11) 0.3060(2)
C14 C 0.2215(4) 0.72415(12) 0.2847(3)
H11 H 0.2616 0.7314 0.2718
C15 C 0.2155(4) 0.70114(12) 0.2813(3)
H12 H 0.2491 0.6933 0.2634
N3 N 0.2352(3) 0.64859(9) 0.3377(2)
C16 C 0.2291(4) 0.65452(10) 0.3825(3)
H13 H 0.1874 0.6620 0.3924
C17 C 0.2812(4) 0.64996(11) 0.4127(3)
H14 H 0.2753 0.6545 0.4430
C18 C 0.3433(4) 0.63868(12) 0.4000(3)
C19 C 0.3493(4) 0.63303(11) 0.3563(3)
H15 H 0.3908 0.6253 0.3467
C20 C 0.2962(4) 0.63808(10) 0.3241(3)
H16 H 0.3029 0.6342 0.2935
N4 N 0.5057(4) 0.61750(10) 0.4947(2)
C21 C 0.4323(6) 0.62143(16) 0.5094(3)
H17 H 0.4197 0.6180 0.5394
C22 C 0.3836(4) 0.62955(16) 0.4820(3)
H18 H 0.3379 0.6333 0.4931
C23 C 0.4007(4) 0.63278(11) 0.4343(2)
C24 C 0.4696(4) 0.62891(12) 0.4221(3)
H19 H 0.4829 0.6317 0.3919
C25 C 0.5205(4) 0.62120(12) 0.4514(3)
H20 H 0.5670 0.6184 0.4407
N5 N 0.1481(3) 0.61934(9) 0.2854(2)
C26 C 0.1692(5) 0.60861(13) 0.2484(3)
H21 H 0.1800 0.6175 0.2227
C27 C 0.1762(5) 0.58466(13) 0.2453(3)
H22 H 0.1942 0.5774 0.2191
C28 C 0.1544(4) 0.57199(12) 0.2841(4)
C29 C 0.1334(4) 0.58261(13) 0.3200(3)
H23 H 0.1219 0.5740 0.3460
C30 C 0.1271(4) 0.60693(14) 0.3214(3)
H24 H 0.1085 0.6143 0.3472
C31 C 0.1675(5) 0.54601(12) 0.2811(3)
O3 O 0.2157(5) 0.53840(9) 0.2536(3)
O4 O 0.1304(4) 0.53341(10) 0.3087(3)
C32 C 0.1407(5) 0.50679(12) 0.3125(4)
H25 H 0.0946 0.4995 0.3194
H26 H 0.1574 0.5008 0.2833
C33 C 0.1925(3) 0.50094(9) 0.3479(2)
C34 C 0.2619(4) 0.49491(10) 0.33400(18)
H27 H 0.2739 0.4952 0.3031
C35 C 0.3131(3) 0.48837(10) 0.3663(2)
H28 H 0.3595 0.4843 0.3570
C36 C 0.2951(3) 0.48786(9) 0.4125(2)
C37 C 0.2257(4) 0.49389(11) 0.42637(19)
H29 H 0.2136 0.4935 0.4573
C38 C 0.1744(3) 0.50043(10) 0.3941(3)
H30 H 0.1280 0.5045 0.4034
C39 C 0.3483(5) 0.48027(15) 0.4485(3)
H31 H 0.3847 0.4704 0.4344
H32 H 0.3233 0.4711 0.4714
O5 O 0.3873(4) 0.50174(11) 0.4730(2)
C40 C 0.4443(5) 0.51028(14) 0.4508(3)
O6 O 0.4716(4) 0.50145(10) 0.4187(2)
N6 N 0.5369(3) 0.57119(10) 0.5109(2)
C41 C 0.4849(5) 0.55986(18) 0.5338(3)
H33 H 0.4695 0.5655 0.5621
C42 C 0.4541(4) 0.54001(15) 0.5161(3)
H34 H 0.4178 0.5323 0.5320
C43 C 0.4774(5) 0.53184(13) 0.4748(3)
C44 C 0.5309(5) 0.54290(14) 0.4524(3)
H35 H 0.5488 0.5370 0.4250
C45 C 0.5591(4) 0.56324(16) 0.4708(3)
H36 H 0.5941 0.5714 0.4547
N7 N 0.6156(3) 0.63125(7) 0.56215(17)
C46 C 0.5789(2) 0.64356(10) 0.59587(19)
H37 H 0.5332 0.6388 0.6052
C47 C 0.6105(3) 0.66303(10) 0.61565(18)
H38 H 0.5860 0.6713 0.6382
C48 C 0.6788(3) 0.67020(9) 0.6017(2)
C49 C 0.7155(3) 0.65789(11) 0.5680(2)
H39 H 0.7612 0.6627 0.5587
C50 C 0.6839(3) 0.63841(10) 0.54822(19)
H40 H 0.7084 0.6302 0.5257
N8 N 0.7852(3) 0.72569(8) 0.67063(19)
C51 C 0.7214(3) 0.71669(11) 0.68843(17)
H41 H 0.7034 0.7223 0.7160
C52 C 0.6846(3) 0.69933(11) 0.6650(2)
H42 H 0.6419 0.6933 0.6769
C53 C 0.7115(3) 0.69097(10) 0.6237(2)
C54 C 0.7753(4) 0.69997(11) 0.60592(17)
H43 H 0.7934 0.6944 0.5783
C55 C 0.8122(3) 0.71733(11) 0.6294(2)
H44 H 0.8548 0.7234 0.6175
N9 N 0.8966(4) 0.77539(8) 0.7361(2)
C56 C 0.8634(3) 0.78883(11) 0.7696(2)
H45 H 0.8188 0.7844 0.7814
C57 C 0.8970(4) 0.80889(11) 0.7855(2)
H46 H 0.8748 0.8179 0.8079
C58 C 0.9636(4) 0.81551(9) 0.7679(3)
C59 C 0.9968(3) 0.80207(12) 0.7344(3)
H47 H 1.0414 0.8065 0.7226
C60 C 0.9633(4) 0.78201(11) 0.7185(2)
H48 H 0.9854 0.7730 0.6960
C61 C 0.9870(8) 0.83970(18) 0.7869(5)
O7 O 0.9655(6) 0.84886(16) 0.8170(3)
O8 O 1.0448(6) 0.84675(14) 0.7622(4)
C62 C 1.0767(7) 0.87033(18) 0.7730(4)
H49 H 1.1262 0.8710 0.7621
H50 H 1.0771 0.8727 0.8059
C63 C 1.0316(4) 0.88968(11) 0.7498(3)
C64 C 1.0178(4) 0.88964(10) 0.7030(3)
H51 H 1.0309 0.8769 0.6853
C65 C 0.9844(4) 0.90866(13) 0.6827(2)
H52 H 0.9752 0.9086 0.6514
C66 C 0.9648(4) 0.92772(10) 0.7092(3)
C67 C 0.9786(4) 0.92776(11) 0.7560(3)
H53 H 0.9655 0.9405 0.7737
C68 C 1.0120(4) 0.90874(14) 0.7763(2)
H54 H 1.0213 0.9088 0.8076
C69 C 0.9293(6) 0.94980(15) 0.6882(4)
H55 H 0.9095 0.9595 0.7124
H56 H 0.9652 0.9588 0.6717
O9 O 0.8728(5) 0.94263(13) 0.6576(3)
C70 C 0.8064(7) 0.93808(19) 0.6728(5)
O10 O 0.7907(5) 0.93860(17) 0.7130(3)
N10 N 0.6464(3) 0.91589(10) 0.57609(17)
C71 C 0.7161(3) 0.91973(11) 0.56012(17)
H57 H 0.7270 0.9172 0.5295
C72 C 0.7695(2) 0.92740(11) 0.5900(3)
H58 H 0.8162 0.9300 0.5793
C73 C 0.7531(3) 0.93123(9) 0.6358(2)
C74 C 0.6834(4) 0.92739(10) 0.65179(15)
H59 H 0.6725 0.9300 0.6825
C75 C 0.6300(3) 0.91972(10) 0.62192(18)
H60 H 0.5833 0.9172 0.6326
C1F C -0.1625(6) 0.76323(18) 0.0973(4)
H1F H -0.1991 0.7710 0.1127
C2F C -0.1146(4) 0.77490(11) 0.0772(3)
C3F C -0.0643(6) 0.76290(15) 0.0549(4)
H2F H -0.0284 0.7708 0.0390
C4F C -0.1148(4) 0.80048(12) 0.0756(3)
H3F H -0.1026 0.8056 0.0449
H4F H -0.1630 0.8061 0.0826
O1F O -0.0629(3) 0.81068(9) 0.1084(2)
O2F O -0.1408(3) 0.80961(8) 0.16771(18)
C5F C -0.0833(4) 0.81380(11) 0.1512(3)
C6F C 0.0966(4) 0.83493(12) 0.2015(3)
H5F H 0.1439 0.8376 0.1922
C7F C 0.0489(4) 0.82739(12) 0.1710(3)
H6F H 0.0634 0.8242 0.1412
C8F C -0.0244(4) 0.82427(11) 0.1841(2)
C9F C -0.0430(3) 0.82942(11) 0.2279(3)
H7F H -0.0906 0.8277 0.2375
C10F C 0.0086(4) 0.83722(12) 0.2582(3)
H8F H -0.0049 0.8414 0.2877
N1F N 0.0789(3) 0.83889(9) 0.2454(2)
N2F N 0.1649(3) 0.81104(9) 0.30166(19)
C11F C 0.1191(5) 0.79932(14) 0.3251(3)
H9F H 0.0822 0.8074 0.3398
C12F C 0.1213(5) 0.77554(12) 0.3298(3)
H10F H 0.0885 0.7680 0.3488
C13F C 0.1724(3) 0.76281(11) 0.3060(2)
C14F C 0.2215(4) 0.77585(12) 0.2847(3)
H11F H 0.2616 0.7686 0.2718
C15F C 0.2155(4) 0.79886(12) 0.2813(3)
H12F H 0.2491 0.8067 0.2634
Pd1F Pd 0.15548(3) 0.84567(2) 0.29270(2)
Pd2F Pd 0.57607(3) 0.89866(2) 0.53637(2)
N3F N 0.2352(3) 0.85141(9) 0.3377(2)
C16F C 0.2291(4) 0.84548(10) 0.3825(3)
H13F H 0.1874 0.8380 0.3924
C17F C 0.2812(4) 0.85004(11) 0.4127(3)
H14F H 0.2753 0.8455 0.4430
C18F C 0.3433(4) 0.86132(12) 0.4000(3)
C19F C 0.3493(4) 0.86697(11) 0.3563(3)
H15F H 0.3908 0.8747 0.3467
C20F C 0.2962(4) 0.86192(10) 0.3241(3)
H16F H 0.3029 0.8658 0.2935
N4F N 0.5057(4) 0.88250(10) 0.4947(2)
C21F C 0.4323(6) 0.87857(16) 0.5094(3)
H17F H 0.4197 0.8820 0.5394
C22F C 0.3836(4) 0.87045(16) 0.4820(3)
H18F H 0.3379 0.8667 0.4931
C23F C 0.4007(4) 0.86722(11) 0.4343(2)
C24F C 0.4696(4) 0.87109(12) 0.4221(3)
H19F H 0.4829 0.8683 0.3919
C25F C 0.5205(4) 0.87880(12) 0.4514(3)
H20F H 0.5670 0.8816 0.4407
N5F N 0.1481(3) 0.88066(9) 0.2854(2)
C26F C 0.1692(5) 0.89139(13) 0.2484(3)
H21F H 0.1800 0.8825 0.2227
C27F C 0.1762(5) 0.91534(13) 0.2453(3)
H22F H 0.1942 0.9226 0.2191
C28F C 0.1544(4) 0.92801(12) 0.2841(4)
C29F C 0.1334(4) 0.91739(13) 0.3200(3)
H23F H 0.1219 0.9260 0.3460
C30F C 0.1271(4) 0.89307(14) 0.3214(3)
H24F H 0.1085 0.8857 0.3472
C31F C 0.1675(5) 0.95399(12) 0.2811(3)
O3F O 0.2157(5) 0.96160(9) 0.2536(3)
O4F O 0.1304(4) 0.96659(10) 0.3087(3)
C32F C 0.1407(5) 0.99321(12) 0.3125(4)
H25F H 0.0946 1.0005 0.3194
H26F H 0.1574 0.9992 0.2833
C33F C 0.1925(3) 0.99906(9) 0.3479(2)
C34F C 0.2619(4) 1.00509(10) 0.33400(18)
H27F H 0.2739 1.0048 0.3031
C35F C 0.3131(3) 1.01163(10) 0.3663(2)
H28F H 0.3595 1.0157 0.3570
C36F C 0.2951(3) 1.01214(9) 0.4125(2)
C37F C 0.2257(4) 1.00611(11) 0.42637(19)
H29F H 0.2136 1.0065 0.4573
C38F C 0.1744(3) 0.99957(10) 0.3941(3)
H30F H 0.1280 0.9955 0.4034
C39F C 0.3483(5) 1.01973(15) 0.4485(3)
H31F H 0.3847 1.0296 0.4344
H32F H 0.3233 1.0289 0.4714
O5F O 0.3873(4) 0.99826(11) 0.4730(2)
C40F C 0.4443(5) 0.98972(14) 0.4508(3)
O6F O 0.4716(4) 0.99855(10) 0.4187(2)
N6F N 0.5369(3) 0.92881(10) 0.5109(2)
C41F C 0.4849(5) 0.94014(18) 0.5338(3)
H33F H 0.4695 0.9345 0.5621
C42F C 0.4541(4) 0.95999(15) 0.5161(3)
H34F H 0.4178 0.9677 0.5320
C43F C 0.4774(5) 0.96816(13) 0.4748(3)
C44F C 0.5309(5) 0.95710(14) 0.4524(3)
H35F H 0.5488 0.9630 0.4250
C45F C 0.5591(4) 0.93676(16) 0.4708(3)
H36F H 0.5941 0.9286 0.4547
N7F N 0.6156(3) 0.86875(7) 0.56215(17)
C46F C 0.5789(2) 0.85644(10) 0.59587(19)
H37F H 0.5332 0.8612 0.6052
C47F C 0.6105(3) 0.83697(10) 0.61565(18)
H38F H 0.5860 0.8287 0.6382
C48F C 0.6788(3) 0.82980(9) 0.6017(2)
C49F C 0.7155(3) 0.84211(11) 0.5680(2)
H39F H 0.7612 0.8373 0.5587
C50F C 0.6839(3) 0.86159(10) 0.54822(19)
H40F H 0.7084 0.8698 0.5257
N8F N 0.7852(3) 0.77431(8) 0.67063(19)
C51F C 0.7214(3) 0.78331(11) 0.68843(17)
H41F H 0.7034 0.7777 0.7160
C52F C 0.6846(3) 0.80067(11) 0.6650(2)
H42F H 0.6419 0.8067 0.6769
C53F C 0.7115(3) 0.80903(10) 0.6237(2)
C54F C 0.7753(4) 0.80003(11) 0.60592(17)
H43F H 0.7934 0.8056 0.5783
C55F C 0.8122(3) 0.78267(11) 0.6294(2)
H44F H 0.8548 0.7766 0.6175
N9F N 0.8966(4) 0.72461(8) 0.7361(2)
C56F C 0.8634(3) 0.71117(11) 0.7696(2)
H45F H 0.8188 0.7156 0.7814
C57F C 0.8970(4) 0.69111(11) 0.7855(2)
H46F H 0.8748 0.6821 0.8079
C58F C 0.9636(4) 0.68449(9) 0.7679(3)
C59F C 0.9968(3) 0.69793(12) 0.7344(3)
H47F H 1.0414 0.6935 0.7226
C60F C 0.9633(4) 0.71799(11) 0.7185(2)
H48F H 0.9854 0.7270 0.6960
C61F C 0.9870(8) 0.66030(18) 0.7869(5)
O7F O 0.9655(6) 0.65114(16) 0.8170(3)
O8F O 1.0448(6) 0.65325(14) 0.7622(4)
C62F C 1.0767(7) 0.62967(18) 0.7730(4)
H49F H 1.1262 0.6290 0.7621
H50F H 1.0771 0.6273 0.8059
C63F C 1.0316(4) 0.61032(11) 0.7498(3)
C64F C 1.0178(4) 0.61036(10) 0.7030(3)
H51F H 1.0309 0.6231 0.6853
C65F C 0.9844(4) 0.59134(13) 0.6827(2)
H52F H 0.9752 0.5914 0.6514
C66F C 0.9648(4) 0.57228(10) 0.7092(3)
C67F C 0.9786(4) 0.57224(11) 0.7560(3)
H53F H 0.9655 0.5595 0.7737
C68F C 1.0120(4) 0.59126(14) 0.7763(2)
H54F H 1.0213 0.5912 0.8076
C69F C 0.9293(6) 0.55020(15) 0.6882(4)
H55F H 0.9095 0.5405 0.7124
H56F H 0.9652 0.5412 0.6717
O9F O 0.8728(5) 0.55737(13) 0.6576(3)
C70F C 0.8064(7) 0.56192(19) 0.6728(5)
O10F O 0.7907(5) 0.56140(17) 0.7130(3)
N10F N 0.6464(3) 0.58411(10) 0.57609(17)
C71F C 0.7161(3) 0.58027(11) 0.56012(17)
H57F H 0.7270 0.5828 0.5295
C72F C 0.7695(2) 0.57260(11) 0.5900(3)
H58F H 0.8162 0.5700 0.5793
C73F C 0.7531(3) 0.56877(9) 0.6358(2)
C74F C 0.6834(4) 0.57261(10) 0.65179(15)
H59F H 0.6725 0.5700 0.6825
C75F C 0.6300(3) 0.58028(10) 0.62192(18)
H60F H 0.5833 0.5828 0.6326
S1 S 0.8618(2) 0.59578(8) 0.28608(18)
C76 C 0.8680(8) 0.5696(3) 0.2597(6)
H61 H 0.8657 0.5717 0.2271
H62 H 0.8287 0.5598 0.2694
H63 H 0.9130 0.5624 0.2676
O11 O 0.9463(6) 0.6055(2) 0.2929(4)
C77 C 0.8288(8) 0.5912(2) 0.3290(4)
H64 H 0.8071 0.5882 0.3571
B1 B 0.3107(8) 0.6655(3) 0.1806(4)
F1 F 0.3647(4) 0.65272(14) 0.1643(3)
F2 F 0.2746(3) 0.65430(8) 0.21503(19)
F3 F 0.2597(4) 0.67150(15) 0.1503(2)
F4 F 0.3389(4) 0.68702(14) 0.1933(3)
F5 F 0.0270(3) 0.60934(9) 0.17889(17)
F6 F 0.0319(3) 0.57227(9) 0.2032(2)
F7 F 0.0714(4) 0.58214(12) 0.1362(2)
F8 F -0.0499(3) 0.58407(10) 0.1532(3)
B2 B 0.0218(6) 0.5874(2) 0.1668(5)
loop_
_geom_bond_atom_site_label_1
_geom_bond_atom_site_label_2
_geom_bond_site_symmetry_1
_geom_bond_site_symmetry_2
Pd1 N1 1_555 1_555
Pd2 N4 1_555 1_555
Pd3 N8 1_555 1_555
C1 H1 1_555 1_555
C2 C1 1_555 1_555
C3 C2 1_555 1_555
H2 C3 1_555 1_555
C4 C2 1_555 1_555
H3 C4 1_555 1_555
H4 C4 1_555 1_555
O1 C4 1_555 1_555
O2 C5 1_555 1_555
C5 O1 1_555 1_555
C6 H5 1_555 1_555
C7 C6 1_555 1_555
H6 C7 1_555 1_555
C8 C5 1_555 1_555
C9 C8 1_555 1_555
H7 C9 1_555 1_555
C10 C9 1_555 1_555
H8 C10 1_555 1_555
N1 C6 1_555 1_555
N2 Pd1 1_555 1_555
C11 N2 1_555 1_555
H9 C11 1_555 1_555
C12 C11 1_555 1_555
H10 C12 1_555 1_555
C13 C12 1_555 1_555
C14 C13 1_555 1_555
H11 C14 1_555 1_555
C15 N2 1_555 1_555
H12 C15 1_555 1_555
N3 Pd1 1_555 1_555
C16 N3 1_555 1_555
H13 C16 1_555 1_555
C17 C16 1_555 1_555
H14 C17 1_555 1_555
C18 C17 1_555 1_555
C19 C18 1_555 1_555
H15 C19 1_555 1_555
C20 N3 1_555 1_555
H16 C20 1_555 1_555
N4 C21 1_555 1_555
C21 H17 1_555 1_555
C22 C21 1_555 1_555
H18 C22 1_555 1_555
C23 C18 1_555 1_555
C24 C23 1_555 1_555
H19 C24 1_555 1_555
C25 N4 1_555 1_555
H20 C25 1_555 1_555
N5 Pd1 1_555 1_555
C26 N5 1_555 1_555
H21 C26 1_555 1_555
C27 C26 1_555 1_555
H22 C27 1_555 1_555
C28 C27 1_555 1_555
C29 C28 1_555 1_555
H23 C29 1_555 1_555
C30 N5 1_555 1_555
H24 C30 1_555 1_555
C31 C28 1_555 1_555
O3 C31 1_555 1_555
O4 C31 1_555 1_555
C32 O4 1_555 1_555
H25 C32 1_555 1_555
H26 C32 1_555 1_555
C33 C32 1_555 1_555
C34 C33 1_555 1_555
H27 C34 1_555 1_555
C35 C34 1_555 1_555
H28 C35 1_555 1_555
C36 C35 1_555 1_555
C37 C36 1_555 1_555
H29 C37 1_555 1_555
C38 C33 1_555 1_555
H30 C38 1_555 1_555
C39 C36 1_555 1_555
H31 C39 1_555 1_555
H32 C39 1_555 1_555
O5 C39 1_555 1_555
C40 O5 1_555 1_555
O6 C40 1_555 1_555
N6 Pd2 1_555 1_555
C41 N6 1_555 1_555
H33 C41 1_555 1_555
C42 C41 1_555 1_555
H34 C42 1_555 1_555
C43 C40 1_555 1_555
C44 C43 1_555 1_555
H35 C44 1_555 1_555
C45 N6 1_555 1_555
H36 C45 1_555 1_555
N7 Pd2 1_555 1_555
C46 N7 1_555 1_555
H37 C46 1_555 1_555
C47 C46 1_555 1_555
H38 C47 1_555 1_555
C48 C47 1_555 1_555
C49 C48 1_555 1_555
H39 C49 1_555 1_555
C50 N7 1_555 1_555
H40 C50 1_555 1_555
N8 C51 1_555 1_555
C51 H41 1_555 1_555
C52 C51 1_555 1_555
H42 C52 1_555 1_555
C53 C48 1_555 1_555
C54 C53 1_555 1_555
H43 C54 1_555 1_555
C55 N8 1_555 1_555
H44 C55 1_555 1_555
N9 Pd3 1_555 1_555
C56 N9 1_555 1_555
H45 C56 1_555 1_555
C57 C56 1_555 1_555
H46 C57 1_555 1_555
C58 C57 1_555 1_555
C59 C58 1_555 1_555
H47 C59 1_555 1_555
C60 N9 1_555 1_555
H48 C60 1_555 1_555
C61 C58 1_555 1_555
O7 C61 1_555 1_555
O8 C61 1_555 1_555
C62 O8 1_555 1_555
H49 C62 1_555 1_555
H50 C62 1_555 1_555
C63 C62 1_555 1_555
C64 C63 1_555 1_555
H51 C64 1_555 1_555
C65 C64 1_555 1_555
H52 C65 1_555 1_555
C66 C65 1_555 1_555
C67 C66 1_555 1_555
H53 C67 1_555 1_555
C68 C63 1_555 1_555
H54 C68 1_555 1_555
C69 C66 1_555 1_555
H55 C69 1_555 1_555
H56 C69 1_555 1_555
O9 C69 1_555 1_555
C70 O9 1_555 1_555
O10 C70 1_555 1_555
N10 C71 1_555 1_555
C71 H57 1_555 1_555
C72 C71 1_555 1_555
H58 C72 1_555 1_555
C73 C70 1_555 1_555
C74 C73 1_555 1_555
H59 C74 1_555 1_555
C75 N10 1_555 1_555
H60 C75 1_555 1_555
S1 C76 1_555 1_555
C76 H61 1_555 1_555
H62 C76 1_555 1_555
H63 C76 1_555 1_555
O11 S1 1_555 1_555
C77 S1 1_555 1_555
H64 C77 1_555 1_555
B1 F1 1_555 1_555
F2 B1 1_555 1_555
F3 B1 1_555 1_555
F4 B1 1_555 1_555
F5 B2 1_555 1_555
F6 B2 1_555 1_555
F7 B2 1_555 1_555
F8 B2 1_555 1_555
C1F C1 1_555 1_555
H1F C1F 1_555 1_555
C2F C1F 1_555 1_555
C3F C3 1_555 1_555
H2F C3F 1_555 1_555
C4F C2F 1_555 1_555
H3F C4F 1_555 1_555
H4F C4F 1_555 1_555
O1F C4F 1_555 1_555
O2F C5F 1_555 1_555
C5F O1F 1_555 1_555
C6F H5F 1_555 1_555
C7F C6F 1_555 1_555
H6F C7F 1_555 1_555
C8F C5F 1_555 1_555
C9F C8F 1_555 1_555
H7F C9F 1_555 1_555
C10F C9F 1_555 1_555
H8F C10F 1_555 1_555
N1F C6F 1_555 1_555
N2F C11F 1_555 1_555
C11F H9F 1_555 1_555
C12F C11F 1_555 1_555
H10F C12F 1_555 1_555
C13F C13 1_555 1_555
C14F C13F 1_555 1_555
H11F C14F 1_555 1_555
C15F N2F 1_555 1_555
H12F C15F 1_555 1_555
Pd1F N1F 1_555 1_555
Pd2F N10 1_555 1_555
N3F Pd1F 1_555 1_555
C16F N3F 1_555 1_555
H13F C16F 1_555 1_555
C17F C16F 1_555 1_555
H14F C17F 1_555 1_555
C18F C17F 1_555 1_555
C19F C18F 1_555 1_555
H15F C19F 1_555 1_555
C20F N3F 1_555 1_555
H16F C20F 1_555 1_555
N4F Pd2F 1_555 1_555
C21F N4F 1_555 1_555
H17F C21F 1_555 1_555
C22F C21F 1_555 1_555
H18F C22F 1_555 1_555
C23F C18F 1_555 1_555
C24F C23F 1_555 1_555
H19F C24F 1_555 1_555
C25F N4F 1_555 1_555
H20F C25F 1_555 1_555
N5F Pd1F 1_555 1_555
C26F N5F 1_555 1_555
H21F C26F 1_555 1_555
C27F C26F 1_555 1_555
H22F C27F 1_555 1_555
C28F C27F 1_555 1_555
C29F C28F 1_555 1_555
H23F C29F 1_555 1_555
C30F N5F 1_555 1_555
H24F C30F 1_555 1_555
C31F C28F 1_555 1_555
O3F C31F 1_555 1_555
O4F C31F 1_555 1_555
C32F O4F 1_555 1_555
H25F C32F 1_555 1_555
H26F C32F 1_555 1_555
C33F C32F 1_555 1_555
C34F C33F 1_555 1_555
H27F C34F 1_555 1_555
C35F C34F 1_555 1_555
H28F C35F 1_555 1_555
C36F C35F 1_555 1_555
C37F C36F 1_555 1_555
H29F C37F 1_555 1_555
C38F C33F 1_555 1_555
H30F C38F 1_555 1_555
C39F C36F 1_555 1_555
H31F C39F 1_555 1_555
H32F C39F 1_555 1_555
O5F C39F 1_555 1_555
C40F O5F 1_555 1_555
O6F C40F 1_555 1_555
N6F Pd2F 1_555 1_555
C41F N6F 1_555 1_555
H33F C41F 1_555 1_555
C42F C41F 1_555 1_555
H34F C42F 1_555 1_555
C43F C40F 1_555 1_555
C44F C43F 1_555 1_555
H35F C44F 1_555 1_555
C45F N6F 1_555 1_555
H36F C45F 1_555 1_555
N7F Pd2F 1_555 1_555
C46F N7F 1_555 1_555
H37F C46F 1_555 1_555
C47F C46F 1_555 1_555
H38F C47F 1_555 1_555
C48F C47F 1_555 1_555
C49F C48F 1_555 1_555
H39F C49F 1_555 1_555
C50F N7F 1_555 1_555
H40F C50F 1_555 1_555
N8F Pd3 1_555 1_555
C51F N8F 1_555 1_555
H41F C51F 1_555 1_555
C52F C51F 1_555 1_555
H42F C52F 1_555 1_555
C53F C48F 1_555 1_555
C54F C53F 1_555 1_555
H43F C54F 1_555 1_555
C55F N8F 1_555 1_555
H44F C55F 1_555 1_555
N9F Pd3 1_555 1_555
C56F N9F 1_555 1_555
H45F C56F 1_555 1_555
C57F C56F 1_555 1_555
H46F C57F 1_555 1_555
C58F C57F 1_555 1_555
C59F C58F 1_555 1_555
H47F C59F 1_555 1_555
C60F N9F 1_555 1_555
H48F C60F 1_555 1_555
C61F C58F 1_555 1_555
O7F C61F 1_555 1_555
O8F C61F 1_555 1_555
C62F O8F 1_555 1_555
H49F C62F 1_555 1_555
H50F C62F 1_555 1_555
C63F C62F 1_555 1_555
C64F C63F 1_555 1_555
H51F C64F 1_555 1_555
C65F C64F 1_555 1_555
H52F C65F 1_555 1_555
C66F C65F 1_555 1_555
C67F C66F 1_555 1_555
H53F C67F 1_555 1_555
C68F C63F 1_555 1_555
H54F C68F 1_555 1_555
C69F C66F 1_555 1_555
H55F C69F 1_555 1_555
H56F C69F 1_555 1_555
O9F C69F 1_555 1_555
C70F O9F 1_555 1_555
O10F C70F 1_555 1_555
N10F Pd2 1_555 1_555
C71F N10F 1_555 1_555
H57F C71F 1_555 1_555
C72F C71F 1_555 1_555
H58F C72F 1_555 1_555
C73F C70F 1_555 1_555
C74F C73F 1_555 1_555
H59F C74F 1_555 1_555
C75F N10F 1_555 1_555
H60F C75F 1_555 1_555
C7 C8 1_555 1_555
C10 N1 1_555 1_555
C14 C15 1_555 1_555
C19 C20 1_555 1_555
C22 C23 1_555 1_555
C24 C25 1_555 1_555
C29 C30 1_555 1_555
C37 C38 1_555 1_555
C42 C43 1_555 1_555
C44 C45 1_555 1_555
C49 C50 1_555 1_555
C52 C53 1_555 1_555
C54 C55 1_555 1_555
C59 C60 1_555 1_555
C67 C68 1_555 1_555
C72 C73 1_555 1_555
C74 C75 1_555 1_555
C2F C3F 1_555 1_555
C7F C8F 1_555 1_555
C10F N1F 1_555 1_555
N2F Pd1F 1_555 1_555
C12F C13F 1_555 1_555
C14F C15F 1_555 1_555
C19F C20F 1_555 1_555
C22F C23F 1_555 1_555
C24F C25F 1_555 1_555
C29F C30F 1_555 1_555
C37F C38F 1_555 1_555
C42F C43F 1_555 1_555
C44F C45F 1_555 1_555
C49F C50F 1_555 1_555
C52F C53F 1_555 1_555
C54F C55F 1_555 1_555
C59F C60F 1_555 1_555
C67F C68F 1_555 1_555
C72F C73F 1_555 1_555
C74F C75F 1_555 1_555

#END
