
#######################################################################
#
#                 Cambridge Crystallographic Data Centre
#                                CCDC 
#
#######################################################################
#
# If this CIF has been generated from an entry in the Cambridge 
# Structural Database, then it will include bibliographic, chemical, 
# crystal, experimental, refinement or atomic coordinate data resulting 
# from the CCDC's data processing and validation procedures.
#
#######################################################################

data_PIWDOQ
_chemical_formula_moiety         
'C72 H24 O96 V24,6(C2 H8 N1 1+),6(Cl1 1-),47.04(H2 O1)'
_chemical_name_systematic        
'hexakis(Dimethylammonium) hexachloride octakis(\m~6~-benzene-1,3,5-tricarboxylato)-tetracosakis(\m~2~-oxo)-tetracosaoxo-tetracosa-vanadium hydrate'
_symmetry_cell_setting           tetragonal
_symmetry_space_group_name_H-M   'I 4/m'
_symmetry_Int_Tables_number      87
_space_group_name_Hall           '-I 4'
loop_
_symmetry_equiv_pos_site_id
_symmetry_equiv_pos_as_xyz
1 x,y,z
2 -x,-y,z
3 -y,x,z
4 y,-x,z
5 1/2+x,1/2+y,1/2+z
6 1/2-x,1/2-y,1/2+z
7 1/2-y,1/2+x,1/2+z
8 1/2+y,1/2-x,1/2+z
9 -x,-y,-z
10 x,y,-z
11 y,-x,-z
12 -y,x,-z
13 1/2-x,1/2-y,1/2-z
14 1/2+x,1/2+y,1/2-z
15 1/2+y,1/2-x,1/2-z
16 1/2-y,1/2+x,1/2-z
_cell_length_a                   21.1256(6)
_cell_length_b                   21.1256(6)
_cell_length_c                   27.4118(14)
_cell_angle_alpha                90
_cell_angle_beta                 90
_cell_angle_gamma                90
_cell_volume                     12233.6
_cell_formula_units_Z            2
loop_
_atom_site_label
_atom_site_type_symbol
_atom_site_fract_x
_atom_site_fract_y
_atom_site_fract_z
V1 V 1.00896(5) 0.38244(4) 0.5000
V2 V 0.68325(4) 0.21535(5) 0.5000
V3 V 1.03334(3) 0.10405(4) 0.21540(3)
V4 V 1.11244(3) 0.35077(3) 0.41523(3)
O1 O 0.96123(13) 0.32415(13) 0.45341(11)
O2 O 1.03289(13) 0.30268(13) 0.39460(11)
O3 O 0.98354(13) 0.14845(14) 0.26888(11)
O4 O 0.88872(13) 0.09952(13) 0.26901(10)
O5 O 0.73361(13) 0.14878(13) 0.39378(11)
O6 O 0.75713(13) 0.21983(13) 0.45260(11)
O7 O 0.95919(19) 0.43877(18) 0.5000
O8 O 1.12310(14) 0.38975(14) 0.36588(12)
O9 O 1.05303(16) 0.16520(15) 0.18464(12)
O10 O 0.95809(14) 0.08168(14) 0.18857(10)
O11 O 0.63579(13) 0.18337(13) 0.44945(11)
O12 O 0.6645(2) 0.2888(2) 0.5000
O13 O 1.05934(13) 0.40355(12) 0.44986(11)
C1 C 0.97943(19) 0.29710(18) 0.41470(16)
C2 C 0.9331(2) 0.25356(19) 0.39105(16)
C3 C 0.9503(2) 0.21996(19) 0.34933(16)
H1 H 0.990(2) 0.224(2) 0.3365(18)
C4 C 0.9083(2) 0.17715(19) 0.32834(16)
C5 C 0.8489(2) 0.1680(2) 0.34921(16)
H2 H 0.821(2) 0.139(2) 0.3381(18)
C6 C 0.83164(19) 0.20130(19) 0.39058(16)
C7 C 0.8740(2) 0.24425(19) 0.41137(17)
H3 H 0.863(2) 0.264(2) 0.4420(19)
C8 C 0.76895(18) 0.18930(18) 0.41423(15)
C9 C 0.92845(19) 0.13908(19) 0.28515(15)
V1B V 0.61756(4) 0.00896(5) 0.5000
V2B V 0.78465(5) -0.31675(4) 0.5000
V3B V 0.89595(4) 0.03334(3) 0.21540(3)
V4B V 0.64923(3) 0.11244(3) 0.41523(3)
O1B O 0.67585(13) -0.03877(13) 0.45341(11)
O2B O 0.69732(13) 0.03289(13) 0.39460(11)
O3B O 0.85155(14) -0.01646(13) 0.26888(11)
O4B O 0.90048(13) -0.11128(13) 0.26901(10)
O5B O 0.85122(13) -0.26639(13) 0.39378(11)
O6B O 0.78017(13) -0.24287(13) 0.45260(11)
O7B O 0.56123(18) -0.04081(19) 0.5000
O8B O 0.61025(14) 0.12310(14) 0.36588(12)
O9B O 0.83480(15) 0.05303(16) 0.18464(12)
O10B O 0.91832(14) -0.04191(14) 0.18857(10)
O11B O 0.81663(13) -0.36421(13) 0.44945(11)
O12B O 0.7112(2) -0.3355(2) 0.5000
O13B O 0.59645(12) 0.05934(13) 0.44986(11)
C1B C 0.70290(18) -0.02057(19) 0.41470(16)
C2B C 0.74644(19) -0.0669(2) 0.39105(16)
C3B C 0.78004(19) -0.0497(2) 0.34933(16)
H1B H 0.776(2) -0.010(2) 0.3365(18)
C4B C 0.82285(19) -0.0917(2) 0.32834(16)
C5B C 0.8320(2) -0.1511(2) 0.34921(16)
H2B H 0.861(2) -0.179(2) 0.3381(18)
C6B C 0.79870(19) -0.16836(19) 0.39058(16)
C7B C 0.75575(19) -0.1260(2) 0.41137(17)
H3B H 0.736(2) -0.137(2) 0.4420(19)
C8B C 0.81070(18) -0.23105(18) 0.41423(15)
C9B C 0.86092(19) -0.07155(19) 0.28515(15)
V1C V 1.38244(4) -0.00896(5) 0.5000
V2C V 1.21535(5) 0.31675(4) 0.5000
V3C V 1.10405(4) -0.03334(3) 0.21540(3)
V4C V 1.35077(3) -0.11244(3) 0.41523(3)
O1C O 1.32415(13) 0.03877(13) 0.45341(11)
O2C O 1.30268(13) -0.03289(13) 0.39460(11)
O3C O 1.14845(14) 0.01646(13) 0.26888(11)
O4C O 1.09952(13) 0.11128(13) 0.26901(10)
O5C O 1.14878(13) 0.26639(13) 0.39378(11)
O6C O 1.21983(13) 0.24287(13) 0.45260(11)
O7C O 1.43877(18) 0.04081(19) 0.5000
O8C O 1.38975(14) -0.12310(14) 0.36588(12)
O9C O 1.16520(15) -0.05303(16) 0.18464(12)
O10C O 1.08168(14) 0.04191(14) 0.18857(10)
O11C O 1.18337(13) 0.36421(13) 0.44945(11)
O12C O 1.2888(2) 0.3355(2) 0.5000
O13C O 1.40355(12) -0.05934(13) 0.44986(11)
C1C C 1.29710(18) 0.02057(19) 0.41470(16)
C2C C 1.25356(19) 0.0669(2) 0.39105(16)
C3C C 1.21996(19) 0.0497(2) 0.34933(16)
H1C H 1.224(2) 0.010(2) 0.3365(18)
C4C C 1.17715(19) 0.0917(2) 0.32834(16)
C5C C 1.1680(2) 0.1511(2) 0.34921(16)
H2C H 1.139(2) 0.179(2) 0.3381(18)
C6C C 1.20130(19) 0.16836(19) 0.39058(16)
C7C C 1.24425(19) 0.1260(2) 0.41137(17)
H3C H 1.264(2) 0.137(2) 0.4420(19)
C8C C 1.18930(18) 0.23105(18) 0.41423(15)
C9C C 1.13908(19) 0.07155(19) 0.28515(15)
V3I V 1.03334(3) 0.10405(4) 0.78460(3)
V4I V 1.11244(3) 0.35077(3) 0.58477(3)
O1I O 0.96123(13) 0.32415(13) 0.54659(11)
O2I O 1.03289(13) 0.30268(13) 0.60540(11)
O3I O 0.98354(13) 0.14845(14) 0.73112(11)
O4I O 0.88872(13) 0.09952(13) 0.73099(10)
O5I O 0.73361(13) 0.14878(13) 0.60622(11)
O6I O 0.75713(13) 0.21983(13) 0.54740(11)
O8I O 1.12310(14) 0.38975(14) 0.63412(12)
O9I O 1.05303(16) 0.16520(15) 0.81536(12)
O10I O 0.95809(14) 0.08168(14) 0.81143(10)
O11I O 0.63579(13) 0.18337(13) 0.55055(11)
O13I O 1.05934(13) 0.40355(12) 0.55014(11)
C1I C 0.97943(19) 0.29710(18) 0.58530(16)
C2I C 0.9331(2) 0.25356(19) 0.60895(16)
C3I C 0.9503(2) 0.21996(19) 0.65067(16)
H1I H 0.990(2) 0.224(2) 0.6635(18)
C4I C 0.9083(2) 0.17715(19) 0.67166(16)
C5I C 0.8489(2) 0.1680(2) 0.65079(16)
H2I H 0.821(2) 0.139(2) 0.6619(18)
C6I C 0.83164(19) 0.20130(19) 0.60942(16)
C7I C 0.8740(2) 0.24425(19) 0.58863(17)
H3I H 0.863(2) 0.264(2) 0.5580(19)
C8I C 0.76895(18) 0.18930(18) 0.58577(15)
C9I C 0.92845(19) 0.13908(19) 0.71485(15)
V3J V 1.10405(4) -0.03334(3) 0.78460(3)
V4J V 1.35077(3) -0.11244(3) 0.58477(3)
O1J O 1.32415(13) 0.03877(13) 0.54659(11)
O2J O 1.30268(13) -0.03289(13) 0.60540(11)
O3J O 1.14845(14) 0.01646(13) 0.73112(11)
O4J O 1.09952(13) 0.11128(13) 0.73099(10)
O5J O 1.14878(13) 0.26639(13) 0.60622(11)
O6J O 1.21983(13) 0.24287(13) 0.54740(11)
O8J O 1.38975(14) -0.12310(14) 0.63412(12)
O9J O 1.16520(15) -0.05303(16) 0.81536(12)
O10J O 1.08168(14) 0.04191(14) 0.81143(10)
O11J O 1.18337(13) 0.36421(13) 0.55055(11)
O13J O 1.40355(12) -0.05934(13) 0.55014(11)
C1J C 1.29710(18) 0.02057(19) 0.58530(16)
C2J C 1.25356(19) 0.0669(2) 0.60895(16)
C3J C 1.21996(19) 0.0497(2) 0.65067(16)
H1J H 1.224(2) 0.010(2) 0.6635(18)
C4J C 1.17715(19) 0.0917(2) 0.67166(16)
C5J C 1.1680(2) 0.1511(2) 0.65079(16)
H2J H 1.139(2) 0.179(2) 0.6619(18)
C6J C 1.20130(19) 0.16836(19) 0.60942(16)
C7J C 1.24425(19) 0.1260(2) 0.58863(17)
H3J H 1.264(2) 0.137(2) 0.5580(19)
C8J C 1.18930(18) 0.23105(18) 0.58577(15)
C9J C 1.13908(19) 0.07155(19) 0.71485(15)
V3K V 0.89595(4) 0.03334(3) 0.78460(3)
V4K V 0.64923(3) 0.11244(3) 0.58477(3)
O1K O 0.67585(13) -0.03877(13) 0.54659(11)
O2K O 0.69732(13) 0.03289(13) 0.60540(11)
O3K O 0.85155(14) -0.01646(13) 0.73112(11)
O4K O 0.90048(13) -0.11128(13) 0.73099(10)
O5K O 0.85122(13) -0.26639(13) 0.60622(11)
O6K O 0.78017(13) -0.24287(13) 0.54740(11)
O8K O 0.61025(14) 0.12310(14) 0.63412(12)
O9K O 0.83480(15) 0.05303(16) 0.81536(12)
O10K O 0.91832(14) -0.04191(14) 0.81143(10)
O11K O 0.81663(13) -0.36421(13) 0.55055(11)
O13K O 0.59645(12) 0.05934(13) 0.55014(11)
C1K C 0.70290(18) -0.02057(19) 0.58530(16)
C2K C 0.74644(19) -0.0669(2) 0.60895(16)
C3K C 0.78004(19) -0.0497(2) 0.65067(16)
H1K H 0.776(2) -0.010(2) 0.6635(18)
C4K C 0.82285(19) -0.0917(2) 0.67166(16)
C5K C 0.8320(2) -0.1511(2) 0.65079(16)
H2K H 0.861(2) -0.179(2) 0.6619(18)
C6K C 0.79870(19) -0.16836(19) 0.60942(16)
C7K C 0.75575(19) -0.1260(2) 0.58863(17)
H3K H 0.736(2) -0.137(2) 0.5580(19)
C8K C 0.81070(18) -0.23105(18) 0.58577(15)
C9K C 0.86092(19) -0.07155(19) 0.71485(15)
V1A V 0.99104(5) -0.38244(4) 0.5000
V2A V 1.31675(4) -0.21535(5) 0.5000
V3A V 0.96666(3) -0.10405(4) 0.21540(3)
V4A V 0.88756(3) -0.35077(3) 0.41523(3)
O1A O 1.03877(13) -0.32415(13) 0.45341(11)
O2A O 0.96711(13) -0.30268(13) 0.39460(11)
O3A O 1.01646(13) -0.14845(14) 0.26888(11)
O4A O 1.11128(13) -0.09952(13) 0.26901(10)
O5A O 1.26639(13) -0.14878(13) 0.39378(11)
O6A O 1.24287(13) -0.21983(13) 0.45260(11)
O7A O 1.04081(19) -0.43877(18) 0.5000
O8A O 0.87690(14) -0.38975(14) 0.36588(12)
O9A O 0.94697(16) -0.16520(15) 0.18464(12)
O10A O 1.04191(14) -0.08168(14) 0.18857(10)
O11A O 1.36421(13) -0.18337(13) 0.44945(11)
O12A O 1.3355(2) -0.2888(2) 0.5000
O13A O 0.94066(13) -0.40355(12) 0.44986(11)
C1A C 1.02057(19) -0.29710(18) 0.41470(16)
C2A C 1.0669(2) -0.25356(19) 0.39105(16)
C3A C 1.0497(2) -0.21996(19) 0.34933(16)
H1A H 1.010(2) -0.224(2) 0.3365(18)
C4A C 1.0917(2) -0.17715(19) 0.32834(16)
C5A C 1.1511(2) -0.1680(2) 0.34921(16)
H2A H 1.179(2) -0.139(2) 0.3381(18)
C6A C 1.16836(19) -0.20130(19) 0.39058(16)
C7A C 1.1260(2) -0.24425(19) 0.41137(17)
H3A H 1.137(2) -0.264(2) 0.4420(19)
C8A C 1.23105(18) -0.18930(18) 0.41423(15)
C9A C 1.07155(19) -0.13908(19) 0.28515(15)
V3H V 0.96666(3) -0.10405(4) 0.78460(3)
V4H V 0.88756(3) -0.35077(3) 0.58477(3)
O1H O 1.03877(13) -0.32415(13) 0.54659(11)
O2H O 0.96711(13) -0.30268(13) 0.60540(11)
O3H O 1.01646(13) -0.14845(14) 0.73112(11)
O4H O 1.11128(13) -0.09952(13) 0.73099(10)
O5H O 1.26639(13) -0.14878(13) 0.60622(11)
O6H O 1.24287(13) -0.21983(13) 0.54740(11)
O8H O 0.87690(14) -0.38975(14) 0.63412(12)
O9H O 0.94697(16) -0.16520(15) 0.81536(12)
O10H O 1.04191(14) -0.08168(14) 0.81143(10)
O11H O 1.36421(13) -0.18337(13) 0.55055(11)
O13H O 0.94066(13) -0.40355(12) 0.55014(11)
C1H C 1.02057(19) -0.29710(18) 0.58530(16)
C2H C 1.0669(2) -0.25356(19) 0.60895(16)
C3H C 1.0497(2) -0.21996(19) 0.65067(16)
H1H H 1.010(2) -0.224(2) 0.6635(18)
C4H C 1.0917(2) -0.17715(19) 0.67166(16)
C5H C 1.1511(2) -0.1680(2) 0.65079(16)
H2H H 1.179(2) -0.139(2) 0.6619(18)
C6H C 1.16836(19) -0.20130(19) 0.60942(16)
C7H C 1.1260(2) -0.24425(19) 0.58863(17)
H3H H 1.137(2) -0.264(2) 0.5580(19)
C8H C 1.23105(18) -0.18930(18) 0.58577(15)
C9H C 1.07155(19) -0.13908(19) 0.71485(15)
Cl1 Cl 0.5000 0.5000 0.77562(7)
Cl2 Cl 1.08807(6) 0.27637(6) 0.5000
C10 C 0.9540(5) 0.4626(3) 0.3723(3)
H4 H 0.9289 0.4911 0.3517
H5 H 0.9259 0.4397 0.3946
H6 H 0.9767 0.4323 0.3517
N1 N 1.0000 0.5000 0.4008(2)
H7 H 0.9779 0.5272 0.4207
C10A C 1.0460(5) 0.5374(3) 0.3723(3)
H4A H 1.0711 0.5089 0.3517
H5A H 1.0741 0.5603 0.3946
H6A H 1.0233 0.5677 0.3517
H7A H 1.0221 0.4728 0.4207
O14 O 0.5000 0.5000 0.4066(8)
N2 N 0.2142(11) 0.5621(9) 0.5000
H8 H 0.2404 0.5608 0.5268
C11 C 0.1818(12) 0.5016(11) 0.5000
C12 C 0.1875(13) 0.6262(10) 0.5000
H8I H 0.2404 0.5608 0.4732
O15 O 0.139(3) 0.768(3) 0.808(3)
O16 O 0.1683(19) 0.8232(18) 0.8821(14)
O17 O 0.078(3) 0.857(4) 0.906(3)
O18 O 0.261(3) 0.811(3) 0.793(2)
O19 O 0.5259(14) 0.5812(15) 0.8908(12)
O20 O 0.125(3) 0.572(2) 0.746(2)
O21 O 0.895(2) 0.127(2) 0.5000
O22 O 0.196(2) 0.614(2) 0.6416(17)
O23 O 0.150(3) 0.680(3) 0.7171(19)
O24 O 0.647(3) 0.469(3) 0.5000
loop_
_geom_bond_atom_site_label_1
_geom_bond_atom_site_label_2
_geom_bond_site_symmetry_1
_geom_bond_site_symmetry_2
V1 O1 1_555 1_555
V2 O6 1_555 1_555
V3 O3 1_555 1_555
V4 O2 1_555 1_555
O1 C1 1_555 1_555
O2 C1 1_555 1_555
O3 C9 1_555 1_555
O4 C9 1_555 1_555
O5 C8 1_555 1_555
O6 C8 1_555 1_555
O7 V1 1_555 1_555
O8 V4 1_555 1_555
O9 V3 1_555 1_555
O10 V3 1_555 1_555
O11 V2 1_555 1_555
O12 V2 1_555 1_555
O13 V1 1_555 1_555
C1 C2 1_555 1_555
C2 C3 1_555 1_555
C3 H1 1_555 1_555
C4 C3 1_555 1_555
C5 C4 1_555 1_555
H2 C5 1_555 1_555
C6 C5 1_555 1_555
C7 C2 1_555 1_555
H3 C7 1_555 1_555
C8 C6 1_555 1_555
C9 C4 1_555 1_555
C10 H4 1_555 1_555
H5 C10 1_555 1_555
H6 C10 1_555 1_555
N1 C10 1_555 1_555
H7 N1 1_555 1_555
N2 H8 1_555 1_555
C11 N2 1_555 1_555
C12 N2 1_555 1_555
V1B O1B 1_555 1_555
V2B O6B 1_555 1_555
V3B O4 1_555 1_555
V4B O5 1_555 1_555
O1B C1B 1_555 1_555
O2B V4B 1_555 1_555
O3B V3B 1_555 1_555
O4B C9B 1_555 1_555
O5B C8B 1_555 1_555
O6B C8B 1_555 1_555
O7B V1B 1_555 1_555
O8B V4B 1_555 1_555
O9B V3B 1_555 1_555
O10B V3B 1_555 1_555
O11B V2B 1_555 1_555
O12B V2B 1_555 1_555
O13B V1B 1_555 1_555
C1B O2B 1_555 1_555
C2B C1B 1_555 1_555
C3B C2B 1_555 1_555
H1B C3B 1_555 1_555
C4B C3B 1_555 1_555
C5B C4B 1_555 1_555
H2B C5B 1_555 1_555
C6B C5B 1_555 1_555
C7B C2B 1_555 1_555
H3B C7B 1_555 1_555
C8B C6B 1_555 1_555
C9B O3B 1_555 1_555
V1C O1C 1_555 1_555
V2C O6C 1_555 1_555
V3C O3C 1_555 1_555
V4C O2C 1_555 1_555
O1C C1C 1_555 1_555
O2C C1C 1_555 1_555
O3C C9C 1_555 1_555
O4C V3 1_555 1_555
O5C V4 1_555 1_555
O6C C8C 1_555 1_555
O7C V1C 1_555 1_555
O8C V4C 1_555 1_555
O9C V3C 1_555 1_555
O10C V3 1_555 1_555
O11C V4 1_555 1_555
O12C V2C 1_555 1_555
O13C V1C 1_555 1_555
C1C C2C 1_555 1_555
C2C C3C 1_555 1_555
C3C H1C 1_555 1_555
C4C C3C 1_555 1_555
C5C C4C 1_555 1_555
H2C C5C 1_555 1_555
C6C C5C 1_555 1_555
C7C C2C 1_555 1_555
H3C C7C 1_555 1_555
C8C O5C 1_555 1_555
C9C O4C 1_555 1_555
V3I O3I 1_555 1_555
V4I O2I 1_555 1_555
O1I V1 1_555 1_555
O2I C1I 1_555 1_555
O3I C9I 1_555 1_555
O4I C9I 1_555 1_555
O5I C8I 1_555 1_555
O6I V2 1_555 1_555
O8I V4I 1_555 1_555
O9I V3I 1_555 1_555
O10I V3I 1_555 1_555
O11I V2 1_555 1_555
O13I V1 1_555 1_555
C1I O1I 1_555 1_555
C2I C1I 1_555 1_555
C3I C2I 1_555 1_555
H1I C3I 1_555 1_555
C4I C3I 1_555 1_555
C5I C4I 1_555 1_555
H2I C5I 1_555 1_555
C6I C5I 1_555 1_555
C7I C2I 1_555 1_555
H3I C7I 1_555 1_555
C8I O6I 1_555 1_555
C9I C4I 1_555 1_555
V3J O3J 1_555 1_555
V4J O2J 1_555 1_555
O1J V1C 1_555 1_555
O2J C1J 1_555 1_555
O3J C9J 1_555 1_555
O4J V3I 1_555 1_555
O5J V4I 1_555 1_555
O6J V2C 1_555 1_555
O8J V4J 1_555 1_555
O9J V3J 1_555 1_555
O10J V3I 1_555 1_555
O11J V2C 1_555 1_555
O13J V1C 1_555 1_555
C1J O1J 1_555 1_555
C2J C1J 1_555 1_555
C3J C2J 1_555 1_555
H1J C3J 1_555 1_555
C4J C3J 1_555 1_555
C5J C4J 1_555 1_555
H2J C5J 1_555 1_555
C6J C5J 1_555 1_555
C7J C2J 1_555 1_555
H3J C7J 1_555 1_555
C8J O5J 1_555 1_555
C9J O4J 1_555 1_555
V3K O4I 1_555 1_555
V4K O5I 1_555 1_555
O1K V1B 1_555 1_555
O2K V4K 1_555 1_555
O3K V3K 1_555 1_555
O4K C9K 1_555 1_555
O5K C8K 1_555 1_555
O6K V2B 1_555 1_555
O8K V4K 1_555 1_555
O9K V3K 1_555 1_555
O10K V3K 1_555 1_555
O11K V2B 1_555 1_555
O13K V1B 1_555 1_555
C1K O1K 1_555 1_555
C2K C1K 1_555 1_555
C3K C2K 1_555 1_555
H1K C3K 1_555 1_555
C4K C3K 1_555 1_555
C5K C4K 1_555 1_555
H2K C5K 1_555 1_555
C6K C5K 1_555 1_555
C7K C2K 1_555 1_555
H3K C7K 1_555 1_555
C8K O6K 1_555 1_555
C9K O3K 1_555 1_555
V1A O1A 1_555 1_555
V2A O6A 1_555 1_555
V3A O4B 1_555 1_555
V4A O5B 1_555 1_555
O1A C1A 1_555 1_555
O2A V4A 1_555 1_555
O3A V3A 1_555 1_555
O4A V3C 1_555 1_555
O5A V4C 1_555 1_555
O6A C8A 1_555 1_555
O7A V1A 1_555 1_555
O8A V4A 1_555 1_555
O9A V3A 1_555 1_555
O10A V3C 1_555 1_555
O11A V4C 1_555 1_555
O12A V2A 1_555 1_555
O13A V1A 1_555 1_555
C1A O2A 1_555 1_555
C2A C1A 1_555 1_555
C3A C2A 1_555 1_555
H1A C3A 1_555 1_555
C4A C3A 1_555 1_555
C5A C4A 1_555 1_555
H2A C5A 1_555 1_555
C6A C5A 1_555 1_555
C7A C2A 1_555 1_555
H3A C7A 1_555 1_555
C8A O5A 1_555 1_555
C9A O3A 1_555 1_555
V3H O4K 1_555 1_555
V4H O5K 1_555 1_555
O1H V1A 1_555 1_555
O2H V4H 1_555 1_555
O3H V3H 1_555 1_555
O4H V3J 1_555 1_555
O5H V4J 1_555 1_555
O6H V2A 1_555 1_555
O8H V4H 1_555 1_555
O9H V3H 1_555 1_555
O10H V3J 1_555 1_555
O11H V4J 1_555 1_555
O13H V1A 1_555 1_555
C1H O1H 1_555 1_555
C2H C1H 1_555 1_555
C3H C2H 1_555 1_555
H1H C3H 1_555 1_555
C4H C3H 1_555 1_555
C5H C4H 1_555 1_555
H2H C5H 1_555 1_555
C6H C5H 1_555 1_555
C7H C2H 1_555 1_555
H3H C7H 1_555 1_555
C8H O5H 1_555 1_555
C9H O3H 1_555 1_555
C10A N1 1_555 1_555
H4A C10A 1_555 1_555
H5A C10A 1_555 1_555
H6A C10A 1_555 1_555
H7A N1 1_555 1_555
H8I N2 1_555 1_555
V4 O13 1_555 1_555
O10 V3B 1_555 1_555
O11 V4B 1_555 1_555
C6 C7 1_555 1_555
V4B O13B 1_555 1_555
O10B V3A 1_555 1_555
O11B V4A 1_555 1_555
C4B C9B 1_555 1_555
C6B C7B 1_555 1_555
V2C O11C 1_555 1_555
V3C O10C 1_555 1_555
V4C O13C 1_555 1_555
C4C C9C 1_555 1_555
C6C C7C 1_555 1_555
C6C C8C 1_555 1_555
V4I O13I 1_555 1_555
V4I O11J 1_555 1_555
O10I V3K 1_555 1_555
O11I V4K 1_555 1_555
C6I C7I 1_555 1_555
C6I C8I 1_555 1_555
V3J O10J 1_555 1_555
V4J O13J 1_555 1_555
O6J C8J 1_555 1_555
C4J C9J 1_555 1_555
C6J C7J 1_555 1_555
C6J C8J 1_555 1_555
V4K O13K 1_555 1_555
O2K C1K 1_555 1_555
O10K V3H 1_555 1_555
O11K V4H 1_555 1_555
C4K C9K 1_555 1_555
C6K C7K 1_555 1_555
C6K C8K 1_555 1_555
V2A O11A 1_555 1_555
V2A O11H 1_555 1_555
V3A O10A 1_555 1_555
V4A O13A 1_555 1_555
O4A C9A 1_555 1_555
C4A C9A 1_555 1_555
C6A C7A 1_555 1_555
C6A C8A 1_555 1_555
V3H O10H 1_555 1_555
V4H O13H 1_555 1_555
O2H C1H 1_555 1_555
O4H C9H 1_555 1_555
O6H C8H 1_555 1_555
C4H C9H 1_555 1_555
C6H C7H 1_555 1_555
C6H C8H 1_555 1_555

#END
