
#######################################################################
#
#                 Cambridge Crystallographic Data Centre
#                                CCDC 
#
#######################################################################
#
# If this CIF has been generated from an entry in the Cambridge 
# Structural Database, then it will include bibliographic, chemical, 
# crystal, experimental, refinement or atomic coordinate data resulting 
# from the CCDC's data processing and validation procedures.
#
#######################################################################

data_QIRPAI
_chemical_formula_moiety         
'C108 H78 Br6 O12 P6 Pd3 Sn2 4-,4(C6 H13 N2 1+),3(H2 O1)'
_chemical_name_systematic        
'tetrakis(1-Azonia-4-azabicyclo(2.2.2)octane) hexakis(\m~2~-4-(diphenylphosphino)-1,2-catecholato)-hexabromo-tri-palladium-di-tin(iv) unknown solvate trihydrate'
_symmetry_cell_setting           hexagonal
_symmetry_space_group_name_H-M   'P 63/m'
_symmetry_Int_Tables_number      176
_space_group_name_Hall           '-P 6c'
loop_
_symmetry_equiv_pos_site_id
_symmetry_equiv_pos_as_xyz
1 x,y,z
2 -y,x-y,z
3 -x+y,-x,z
4 y,-x+y,1/2+z
5 x-y,x,1/2+z
6 x,y,1/2-z
7 -x,-y,-z
8 y,-x+y,-z
9 x-y,x,-z
10 -y,x-y,1/2-z
11 -x+y,-x,1/2-z
12 -x,-y,1/2+z
_cell_length_a                   23.2574(5)
_cell_length_b                   23.2574(5)
_cell_length_c                   16.7452(4)
_cell_angle_alpha                90
_cell_angle_beta                 90
_cell_angle_gamma                120
_cell_volume                     7844.1
_exptl_crystal_colour            orange
_exptl_crystal_description       'triangular prism'
_cell_formula_units_Z            2
loop_
_atom_site_label
_atom_site_type_symbol
_atom_site_fract_x
_atom_site_fract_y
_atom_site_fract_z
Sn1 Sn 0.66667 0.33333 0.02667(6)
Pd1 Pd 0.69588(5) 0.05936(4) 0.25000
Br1 Br 0.80382(6) 0.16142(6) 0.25000
Br2 Br 0.5835(1) -0.0341(1) 0.25000
P1 P 0.7003(1) 0.0585(1) 0.1090(1)
O1 O 0.6401(3) 0.2523(2) -0.0442(3)
O2 O 0.6991(2) 0.2825(2) 0.0974(3)
C1 C 0.6583(4) 0.2111(4) -0.0130(5)
C2 C 0.6867(4) 0.2240(4) 0.0628(5)
C3 C 0.7009(4) 0.1791(4) 0.0977(5)
C4 C 0.6896(4) 0.1215(4) 0.0603(5)
C5 C 0.6645(4) 0.1104(4) -0.0166(6)
C6 C 0.6479(4) 0.1536(4) -0.0539(5)
C7 C 0.7790(4) 0.0678(4) 0.0791(6)
C8 C 0.8087(5) 0.0975(5) 0.0082(7)
C9 C 0.8674(6) 0.0996(5) -0.0138(8)
C10 C 0.8943(5) 0.0723(6) 0.034(1)
C11 C 0.8644(5) 0.0406(5) 0.1019(8)
C12 C 0.8071(5) 0.0399(4) 0.1265(6)
C13 C 0.6402(5) -0.0175(4) 0.0598(5)
C14 C 0.5722(4) -0.0352(4) 0.0570(5)
C15 C 0.5254(4) -0.0931(5) 0.0224(6)
C16 C 0.5426(5) -0.1344(4) -0.0120(6)
C17 C 0.6089(6) -0.1182(5) -0.0155(6)
C18 C 0.6566(5) -0.0592(5) 0.0209(6)
O1A O 0.7477(2) 0.3878(4) -0.0442(3)
C1A C 0.7889(4) 0.4472(6) -0.0130(5)
C2A C 0.7760(4) 0.4627(6) 0.0628(5)
O2A O 0.7175(2) 0.4166(3) 0.0974(3)
O1B O 0.6122(4) 0.3599(3) -0.0442(3)
C1B C 0.5528(6) 0.3417(4) -0.0130(5)
C2B C 0.5373(6) 0.3133(4) 0.0628(5)
O2B O 0.5834(3) 0.3009(2) 0.0974(3)
C3B C 0.4782(6) 0.2991(4) 0.0977(5)
C4B C 0.4319(6) 0.3104(4) 0.0603(5)
P1B P 0.3582(1) 0.2997(1) 0.1090(1)
Pd1B Pd 0.36348(6) 0.30412(5) 0.25000
Br1B Br 0.35760(8) 0.19618(6) 0.25000
Br2B Br 0.3824(1) 0.4165(1) 0.25000
P1J P 0.3582(1) 0.2997(1) 0.3910(1)
C4J C 0.4319(6) 0.3104(4) 0.4397(5)
C3J C 0.4782(6) 0.2991(4) 0.4023(5)
C2J C 0.5373(6) 0.3133(4) 0.4372(5)
O2J O 0.5834(3) 0.3009(2) 0.4026(3)
Sn1J Sn 0.66666 0.33333 0.47333(6)
O1J O 0.6122(4) 0.3599(3) 0.5442(3)
C1J C 0.5528(6) 0.3417(4) 0.5130(5)
C6J C 0.5057(6) 0.3521(4) 0.5539(5)
C5J C 0.4459(6) 0.3355(4) 0.5166(6)
O1E O 0.6401(3) 0.2523(2) 0.5442(3)
C1E C 0.6583(4) 0.2111(4) 0.5130(5)
C2E C 0.6867(4) 0.2240(4) 0.4372(5)
O2E O 0.6991(2) 0.2825(2) 0.4026(3)
O1I O 0.7477(2) 0.3878(4) 0.5442(3)
C1I C 0.7889(4) 0.4472(6) 0.5130(5)
C2I C 0.7760(4) 0.4627(6) 0.4372(5)
O2I O 0.7175(2) 0.4166(3) 0.4026(3)
C3I C 0.8209(4) 0.5218(6) 0.4023(5)
C4I C 0.8785(4) 0.5681(6) 0.4397(5)
P1I P 0.9415(1) 0.6418(1) 0.3910(1)
Pd1I Pd 0.94064(4) 0.63652(6) 0.25000
Br1I Br 0.83858(6) 0.64240(8) 0.25000
Br2I Br 1.0341(1) 0.6176(1) 0.25000
P1A P 0.9415(1) 0.6418(1) 0.1090(1)
C4A C 0.8785(4) 0.5681(6) 0.0603(5)
C3A C 0.8209(4) 0.5218(6) 0.0977(5)
C5A C 0.8896(4) 0.5541(6) -0.0166(6)
C6A C 0.8464(4) 0.4943(6) -0.0539(5)
C7A C 0.9322(4) 0.7112(6) 0.0791(6)
C8A C 0.9025(5) 0.7112(7) 0.0082(7)
C9A C 0.9004(5) 0.7678(8) -0.0138(8)
C10A C 0.9277(6) 0.8220(8) 0.034(1)
C11A C 0.9594(5) 0.8238(7) 0.1019(8)
C12A C 0.9601(4) 0.7672(6) 0.1265(6)
C13A C 1.0175(4) 0.6577(6) 0.0598(5)
C14A C 1.0352(4) 0.6074(6) 0.0570(5)
C15A C 1.0931(5) 0.6185(6) 0.0224(6)
C16A C 1.1344(4) 0.6770(6) -0.0120(6)
C17A C 1.1182(5) 0.7271(8) -0.0155(6)
C18A C 1.0592(5) 0.7158(7) 0.0209(6)
C7I C 0.9322(4) 0.7112(6) 0.4209(6)
C8I C 0.9025(5) 0.7112(7) 0.4918(7)
C9I C 0.9004(5) 0.7678(8) 0.5138(8)
C10I C 0.9277(6) 0.8220(8) 0.466(1)
C11I C 0.9594(5) 0.8238(7) 0.3981(8)
C12I C 0.9601(4) 0.7672(6) 0.3735(6)
C13I C 1.0175(4) 0.6577(6) 0.4402(5)
C14I C 1.0352(4) 0.6074(6) 0.4430(5)
C15I C 1.0931(5) 0.6185(6) 0.4776(6)
C16I C 1.1344(4) 0.6770(6) 0.5120(6)
C17I C 1.1182(5) 0.7271(8) 0.5155(6)
C18I C 1.0592(5) 0.7158(7) 0.4791(6)
C5I C 0.8896(4) 0.5541(6) 0.5166(6)
C6I C 0.8464(4) 0.4943(6) 0.5539(5)
C3E C 0.7009(4) 0.1791(4) 0.4023(5)
C4E C 0.6896(4) 0.1215(4) 0.4397(5)
P1E P 0.7003(1) 0.0585(1) 0.3910(1)
C7E C 0.7790(4) 0.0678(4) 0.4209(6)
C8E C 0.8087(5) 0.0975(5) 0.4918(7)
C9E C 0.8674(6) 0.0996(5) 0.5138(8)
C10E C 0.8943(5) 0.0723(6) 0.466(1)
C11E C 0.8644(5) 0.0406(5) 0.3981(8)
C12E C 0.8071(5) 0.0399(4) 0.3735(6)
C13E C 0.6402(5) -0.0175(4) 0.4402(5)
C14E C 0.5722(4) -0.0352(4) 0.4430(5)
C15E C 0.5254(4) -0.0931(5) 0.4776(6)
C16E C 0.5426(5) -0.1344(4) 0.5120(6)
C17E C 0.6089(6) -0.1182(5) 0.5155(6)
C18E C 0.6566(5) -0.0592(5) 0.4791(6)
C5E C 0.6645(4) 0.1104(4) 0.5166(6)
C6E C 0.6479(4) 0.1536(4) 0.5539(5)
C7J C 0.2888(6) 0.2210(4) 0.4209(6)
C8J C 0.2888(7) 0.1913(5) 0.4918(7)
C9J C 0.2322(8) 0.1326(6) 0.5138(8)
C10J C 0.1780(8) 0.1057(5) 0.466(1)
C11J C 0.1762(7) 0.1356(5) 0.3981(8)
C12J C 0.2328(6) 0.1929(5) 0.3735(6)
C13J C 0.3423(6) 0.3598(5) 0.4402(5)
C14J C 0.3926(6) 0.4278(4) 0.4430(5)
C15J C 0.3815(6) 0.4746(4) 0.4776(6)
C16J C 0.3230(6) 0.4574(5) 0.5120(6)
C17J C 0.2729(8) 0.3911(6) 0.5155(6)
C18J C 0.2842(7) 0.3434(5) 0.4791(6)
C7B C 0.2888(6) 0.2210(4) 0.0791(6)
C8B C 0.2888(7) 0.1913(5) 0.0082(7)
C9B C 0.2322(8) 0.1326(6) -0.0138(8)
C10B C 0.1780(8) 0.1057(5) 0.034(1)
C11B C 0.1762(7) 0.1356(5) 0.1019(8)
C12B C 0.2328(6) 0.1929(5) 0.1265(6)
C13B C 0.3423(6) 0.3598(5) 0.0598(5)
C14B C 0.3926(6) 0.4278(4) 0.0570(5)
C15B C 0.3815(6) 0.4746(4) 0.0224(6)
C16B C 0.3230(6) 0.4574(5) -0.0120(6)
C17B C 0.2729(8) 0.3911(6) -0.0155(6)
C18B C 0.2842(7) 0.3434(5) 0.0209(6)
C5B C 0.4459(6) 0.3355(4) -0.0166(6)
C6B C 0.5057(6) 0.3521(4) -0.0539(5)
O3 O 0.6515(4) 0.2457(4) 0.25000
N1 N 0.5388(5) 0.1315(5) 0.25000
N2 N 0.4267(5) 0.0251(5) 0.25000
C19 C 0.5330(5) 0.0916(5) 0.3240(6)
C20 C 0.4637(5) 0.0280(5) 0.3225(6)
C21 C 0.4843(8) 0.1473(7) 0.2500
C22 C 0.4211(8) 0.0842(9) 0.2500
C20E C 0.4637(5) 0.0280(5) 0.1775(6)
C19E C 0.5330(5) 0.0916(5) 0.1760(6)
loop_
_geom_bond_atom_site_label_1
_geom_bond_atom_site_label_2
_geom_bond_site_symmetry_1
_geom_bond_site_symmetry_2
Sn1 O1 1_555 1_555
Pd1 Br1 1_555 1_555
Br2 Pd1 1_555 1_555
P1 Pd1 1_555 1_555
O1 C1 1_555 1_555
O2 Sn1 1_555 1_555
N1 C19 1_555 1_555
N2 C20 1_555 1_555
C1 C2 1_555 1_555
C2 O2 1_555 1_555
C3 C2 1_555 1_555
C4 P1 1_555 1_555
C5 C4 1_555 1_555
C6 C1 1_555 1_555
C7 P1 1_555 1_555
C8 C7 1_555 1_555
C9 C8 1_555 1_555
C10 C9 1_555 1_555
C11 C10 1_555 1_555
C12 C7 1_555 1_555
C13 P1 1_555 1_555
C14 C13 1_555 1_555
C15 C14 1_555 1_555
C16 C15 1_555 1_555
C17 C16 1_555 1_555
C18 C13 1_555 1_555
C19 C20 1_555 1_555
C21 N1 1_555 1_555
C22 N2 1_555 1_555
O1A Sn1 1_555 1_555
C1A O1A 1_555 1_555
C2A C1A 1_555 1_555
O2A Sn1 1_555 1_555
O1B Sn1 1_555 1_555
C1B O1B 1_555 1_555
C2B C1B 1_555 1_555
O2B Sn1 1_555 1_555
C3B C2B 1_555 1_555
C4B C3B 1_555 1_555
P1B C4B 1_555 1_555
Pd1B P1B 1_555 1_555
Br1B Pd1B 1_555 1_555
Br2B Pd1B 1_555 1_555
P1J Pd1B 1_555 1_555
C4J P1J 1_555 1_555
C3J C4J 1_555 1_555
C2J C3J 1_555 1_555
O2J C2J 1_555 1_555
Sn1J O2J 1_555 1_555
O1J Sn1J 1_555 1_555
C1J C2J 1_555 1_555
C6J C1J 1_555 1_555
C5J C4J 1_555 1_555
O1E Sn1J 1_555 1_555
C1E O1E 1_555 1_555
C2E C1E 1_555 1_555
O2E Sn1J 1_555 1_555
O1I Sn1J 1_555 1_555
C1I O1I 1_555 1_555
C2I C1I 1_555 1_555
O2I Sn1J 1_555 1_555
C3I C2I 1_555 1_555
C4I C3I 1_555 1_555
P1I C4I 1_555 1_555
Pd1I P1I 1_555 1_555
Br1I Pd1I 1_555 1_555
Br2I Pd1I 1_555 1_555
P1A Pd1I 1_555 1_555
C4A P1A 1_555 1_555
C3A C2A 1_555 1_555
C5A C4A 1_555 1_555
C6A C1A 1_555 1_555
C7A P1A 1_555 1_555
C8A C7A 1_555 1_555
C9A C8A 1_555 1_555
C10A C9A 1_555 1_555
C11A C10A 1_555 1_555
C12A C7A 1_555 1_555
C13A P1A 1_555 1_555
C14A C13A 1_555 1_555
C15A C14A 1_555 1_555
C16A C15A 1_555 1_555
C17A C16A 1_555 1_555
C18A C13A 1_555 1_555
C7I P1I 1_555 1_555
C8I C7I 1_555 1_555
C9I C8I 1_555 1_555
C10I C9I 1_555 1_555
C11I C10I 1_555 1_555
C12I C7I 1_555 1_555
C13I P1I 1_555 1_555
C14I C13I 1_555 1_555
C15I C14I 1_555 1_555
C16I C15I 1_555 1_555
C17I C16I 1_555 1_555
C18I C13I 1_555 1_555
C5I C4I 1_555 1_555
C6I C1I 1_555 1_555
C3E C2E 1_555 1_555
C4E C3E 1_555 1_555
P1E Pd1 1_555 1_555
C7E P1E 1_555 1_555
C8E C7E 1_555 1_555
C9E C8E 1_555 1_555
C10E C9E 1_555 1_555
C11E C10E 1_555 1_555
C12E C7E 1_555 1_555
C13E P1E 1_555 1_555
C14E C13E 1_555 1_555
C15E C14E 1_555 1_555
C16E C15E 1_555 1_555
C17E C16E 1_555 1_555
C18E C13E 1_555 1_555
C5E C4E 1_555 1_555
C6E C1E 1_555 1_555
C7J P1J 1_555 1_555
C8J C7J 1_555 1_555
C9J C8J 1_555 1_555
C10J C9J 1_555 1_555
C11J C10J 1_555 1_555
C12J C7J 1_555 1_555
C13J P1J 1_555 1_555
C14J C13J 1_555 1_555
C15J C14J 1_555 1_555
C16J C15J 1_555 1_555
C17J C16J 1_555 1_555
C18J C13J 1_555 1_555
C7B P1B 1_555 1_555
C8B C7B 1_555 1_555
C9B C8B 1_555 1_555
C10B C9B 1_555 1_555
C11B C10B 1_555 1_555
C12B C7B 1_555 1_555
C13B P1B 1_555 1_555
C14B C13B 1_555 1_555
C15B C14B 1_555 1_555
C16B C15B 1_555 1_555
C17B C16B 1_555 1_555
C18B C13B 1_555 1_555
C5B C4B 1_555 1_555
C6B C1B 1_555 1_555
C20E N2 1_555 1_555
C19E N1 1_555 1_555
C3 C4 1_555 1_555
C5 C6 1_555 1_555
C11 C12 1_555 1_555
C17 C18 1_555 1_555
C21 C22 1_555 1_555
C2A O2A 1_555 1_555
C2B O2B 1_555 1_555
O1J C1J 1_555 1_555
C6J C5J 1_555 1_555
C2E O2E 1_555 1_555
C2I O2I 1_555 1_555
C4A C3A 1_555 1_555
C5A C6A 1_555 1_555
C11A C12A 1_555 1_555
C17A C18A 1_555 1_555
C11I C12I 1_555 1_555
C17I C18I 1_555 1_555
C5I C6I 1_555 1_555
C4E P1E 1_555 1_555
C11E C12E 1_555 1_555
C17E C18E 1_555 1_555
C5E C6E 1_555 1_555
C11J C12J 1_555 1_555
C17J C18J 1_555 1_555
C11B C12B 1_555 1_555
C17B C18B 1_555 1_555
C5B C6B 1_555 1_555
C20E C19E 1_555 1_555

#END
