
#######################################################################
#
#                 Cambridge Crystallographic Data Centre
#                                CCDC 
#
#######################################################################
#
# If this CIF has been generated from an entry in the Cambridge 
# Structural Database, then it will include bibliographic, chemical, 
# crystal, experimental, refinement or atomic coordinate data resulting 
# from the CCDC's data processing and validation procedures.
#
#######################################################################

data_QURBIO
_chemical_formula_moiety         
'C30 H66 N6 P6 Pt3 6+,6(C1 F3 O3 S1 1-),3(C1 H3 N1 O2)'
_chemical_name_systematic        
"tris((\m~2~-Pyrazine-N,N')-bis(trimethylphosphine)-platinum(ii)) hexakis(trifluoromethanesulfonate) nitromethane solvate"
_symmetry_cell_setting           monoclinic
_symmetry_space_group_name_H-M   'P 21/c'
_symmetry_Int_Tables_number      14
_space_group_name_Hall           '-P 2ybc'
loop_
_symmetry_equiv_pos_site_id
_symmetry_equiv_pos_as_xyz
1 x,y,z
2 x,1/2-y,1/2+z
3 -x,-y,-z
4 -x,1/2+y,1/2-z
_cell_length_a                   15.584(3)
_cell_length_b                   24.021(4)
_cell_length_c                   23.542(4)
_cell_angle_alpha                90
_cell_angle_beta                 105.146(6)
_cell_angle_gamma                90
_cell_volume                     8506.66
_exptl_crystal_colour            colorless
_exptl_crystal_description       prism
_cell_formula_units_Z            4
_exptl_crystal_recrystallization_method 'diethyl ether/nitromethane'
loop_
_atom_site_label
_atom_site_type_symbol
_atom_site_fract_x
_atom_site_fract_y
_atom_site_fract_z
Pt1 Pt 0.22684(8) 0.12051(5) 0.08655(5)
Pt2 Pt 0.32070(8) 0.37726(5) 0.22490(5)
Pt3 Pt 0.10984(9) 0.36390(5) -0.07361(5)
P1 P 0.2875(7) 0.0559(4) 0.1549(4)
P2 P 0.3890(8) 0.3552(5) 0.3197(4)
P3 P 0.3259(7) 0.4701(4) 0.2394(4)
P4 P 0.1046(7) 0.4529(4) -0.1036(4)
P5 P 0.0355(8) 0.3310(4) -0.1626(4)
N1 N 0.2681(17) 0.1889(10) 0.1453(10)
N2 N 0.3056(17) 0.2919(9) 0.2015(9)
N3 N 0.2567(18) 0.3895(10) 0.1334(10)
N4 N 0.1772(18) 0.3853(10) 0.0146(11)
N5 N 0.1315(17) 0.2819(10) -0.0392(10)
N6 N 0.1828(18) 0.1855(9) 0.0257(10)
C1 C 0.210(2) 0.2136(13) 0.1688(11)
H1 H 0.1542 0.1963 0.1667
C2 C 0.230(2) 0.2671(13) 0.1978(12)
H2 H 0.1872 0.2844 0.2144
C3 C 0.365(2) 0.2653(12) 0.1781(12)
H3 H 0.4205 0.2824 0.1807
C4 C 0.348(2) 0.2151(11) 0.1513(11)
H4 H 0.3924 0.1978 0.1363
C5 C 0.305(2) 0.3862(14) 0.0937(13)
H5 H 0.3684 0.3853 0.1065
C6 C 0.263(2) 0.3841(13) 0.0339(13)
H6 H 0.2975 0.3818 0.0064
C7 C 0.128(2) 0.3875(13) 0.0536(14)
H7 H 0.0654 0.3864 0.0400
C8 C 0.169(2) 0.3915(11) 0.1147(12)
H8 H 0.1336 0.3954 0.1418
C9 C 0.210(2) 0.2556(12) -0.0365(13)
H9 H 0.2493 0.2704 -0.0573
C10 C 0.232(2) 0.2077(12) -0.0038(11)
H10 H 0.2871 0.1902 -0.0031
C11 C 0.105(2) 0.2108(11) 0.0227(13)
H11 H 0.0675 0.1952 0.0442
C12 C 0.077(2) 0.2589(11) -0.0105(11)
H12 H 0.0199 0.2747 -0.0126
P6 P 0.1717(6) 0.0566(4) 0.0158(4)
C13 C 0.252(2) 0.026(2) -0.0185(19)
H13 H 0.3037 0.0131 0.0120
H14 H 0.2707 0.0539 -0.0431
H15 H 0.2247 -0.0056 -0.0430
C14 C 0.092(3) 0.0825(13) -0.0408(13)
H16 H 0.0472 0.1021 -0.0254
H17 H 0.0629 0.0520 -0.0664
H18 H 0.1181 0.1085 -0.0634
C15 C 0.133(2) -0.0050(11) 0.0357(17)
H19 H 0.0854 0.0022 0.0546
H20 H 0.1820 -0.0246 0.0633
H21 H 0.1108 -0.0281 0.0006
C16 C 0.341(3) -0.0025(15) 0.131(2)
H22 H 0.3830 0.0109 0.1094
H23 H 0.2964 -0.0263 0.1053
H24 H 0.3736 -0.0239 0.1654
C17 C 0.210(3) 0.026(2) 0.194(2)
H25 H 0.1597 0.0093 0.1650
H26 H 0.1893 0.0553 0.2155
H27 H 0.2412 -0.0027 0.2211
C18 C 0.376(3) 0.0845(15) 0.2117(13)
H28 H 0.4222 0.0993 0.1943
H29 H 0.4018 0.0554 0.2402
H30 H 0.3531 0.1146 0.2317
C19 C 0.486(3) 0.395(2) 0.3588(17)
H31 H 0.5185 0.4074 0.3310
H32 H 0.5240 0.3713 0.3890
H33 H 0.4662 0.4272 0.3776
C20 C 0.328(4) 0.346(3) 0.367(3)
H34 H 0.2741 0.3249 0.3484
H35 H 0.3105 0.3825 0.3797
H36 H 0.3622 0.3257 0.4017
C21 C 0.453(4) 0.2966(19) 0.320(3)
H37 H 0.4156 0.2657 0.3012
H38 H 0.4834 0.2866 0.3608
H39 H 0.4981 0.3044 0.2985
C22 C 0.290(4) 0.476(3) 0.3079(18)
H40 H 0.2288 0.4628 0.3010
H41 H 0.2931 0.5153 0.3202
H42 H 0.3292 0.4539 0.3388
C23 C 0.424(2) 0.5017(16) 0.258(3)
H43 H 0.4664 0.4811 0.2415
H44 H 0.4461 0.5029 0.3009
H45 H 0.4179 0.5397 0.2423
C24 C 0.239(3) 0.511(2) 0.204(3)
H46 H 0.1854 0.4878 0.1918
H47 H 0.2523 0.5269 0.1687
H48 H 0.2303 0.5403 0.2300
C25 C 0.140(3) 0.4624(18) -0.1711(14)
H49 H 0.1992 0.4463 -0.1661
H50 H 0.1419 0.5023 -0.1797
H51 H 0.0977 0.4439 -0.2039
C26 C 0.008(2) 0.4869(18) -0.116(2)
H52 H -0.0398 0.4629 -0.1379
H53 H 0.0111 0.5207 -0.1384
H54 H -0.0030 0.4970 -0.0780
C27 C 0.190(3) 0.4923(15) -0.0628(19)
H55 H 0.2460 0.4721 -0.0577
H56 H 0.1797 0.4998 -0.0242
H57 H 0.1928 0.5275 -0.0831
C28 C 0.103(2) 0.314(2) -0.2102(17)
H58 H 0.1357 0.3467 -0.2171
H59 H 0.0653 0.3001 -0.2477
H60 H 0.1453 0.2845 -0.1920
C29 C -0.061(3) 0.371(2) -0.2048(18)
H61 H -0.0961 0.3842 -0.1783
H62 H -0.0987 0.3472 -0.2352
H63 H -0.0409 0.4031 -0.2235
C30 C -0.025(3) 0.263(2) -0.1537(17)
H64 H -0.0668 0.2700 -0.1295
H65 H 0.0182 0.2348 -0.1344
H66 H -0.0584 0.2494 -0.1925
S1 S 0.3466(8) 0.3542(7) 0.8672(6)
F1 F 0.483(2) 0.3906(15) 0.8469(15)
F2 F 0.4984(19) 0.3746(13) 0.9305(12)
F3 F 0.500(2) 0.3152(14) 0.8814(18)
O1 O 0.328(3) 0.329(2) 0.9122(16)
O2 O 0.321(2) 0.3307(15) 0.8104(13)
O3 O 0.317(4) 0.4058(17) 0.867(3)
C31 C 0.462(2) 0.3640(15) 0.8820(15)
S2 S 0.1389(9) 0.6252(9) 0.0447(7)
F4 F 0.289(3) 0.6658(17) 0.056(2)
F5 F 0.242(3) 0.6304(18) -0.0193(16)
F6 F 0.285(2) 0.5838(15) 0.0435(18)
O4 O 0.154(4) 0.632(3) 0.1022(15)
O5 O 0.103(4) 0.5757(18) 0.017(3)
O6 O 0.096(3) 0.6695(18) 0.019(2)
C32 C 0.244(3) 0.6318(16) 0.0300(17)
S3 S 0.4806(9) 0.1180(6) 0.0597(6)
F7 F 0.603(3) 0.1476(16) 0.022(2)
F8 F 0.574(2) 0.0695(15) 0.0029(15)
F9 F 0.637(2) 0.0847(19) 0.0791(16)
O7 O 0.415(2) 0.1261(17) 0.0122(15)
O8 O 0.505(3) 0.1586(16) 0.1039(16)
O9 O 0.469(4) 0.0695(18) 0.083(2)
C33 C 0.577(3) 0.1064(16) 0.0351(17)
S4 S 0.4270(7) 0.6160(5) 0.7962(5)
F10 F 0.265(2) 0.6329(16) 0.7793(16)
F11 F 0.327(3) 0.6244(17) 0.8627(15)
F12 F 0.301(2) 0.5605(13) 0.8186(15)
O10 O 0.447(3) 0.6695(13) 0.7961(17)
O11 O 0.419(3) 0.5811(17) 0.7473(16)
O12 O 0.484(3) 0.5953(18) 0.8433(17)
C34 C 0.324(2) 0.6130(14) 0.8139(16)
S5 S 0.0202(8) 0.6067(6) 0.3805(6)
F13 F 0.149(2) 0.6510(16) 0.3550(19)
F14 F 0.181(2) 0.595(2) 0.4193(19)
F15 F 0.147(3) 0.5708(19) 0.343(2)
O13 O -0.033(3) 0.628(2) 0.3326(18)
O14 O 0.012(3) 0.5510(14) 0.397(2)
O15 O 0.017(4) 0.640(2) 0.424(2)
C35 C 0.131(3) 0.6113(17) 0.3765(18)
S6 S 0.0808(10) 0.3699(9) 0.2759(7)
F16 F -0.073(3) 0.397(2) 0.2283(18)
F17 F -0.029(3) 0.4341(16) 0.3044(19)
F18 F -0.061(3) 0.3621(19) 0.306(2)
O16 O 0.119(3) 0.3558(18) 0.3310(15)
O17 O 0.116(4) 0.407(2) 0.242(2)
O18 O 0.058(4) 0.3223(18) 0.247(2)
C36 C -0.026(3) 0.3961(18) 0.2749(17)
O19 O 0.291(5) 0.634(3) 0.261(3)
O20 O 0.414(4) 0.690(3) 0.260(3)
N7 N 0.343(4) 0.673(2) 0.2666(17)
C37 C 0.295(5) 0.714(3) 0.293(4)
H67 H 0.3294 0.7487 0.3012
H68 H 0.2859 0.6994 0.3301
H69 H 0.2367 0.7220 0.2659
O21 O 0.0333(19) 0.2908(11) 0.1106(12)
O22 O -0.112(3) 0.288(2) 0.122(2)
N8 N -0.039(2) 0.3035(19) 0.1166(13)
C38 C -0.031(3) 0.3652(16) 0.1177(19)
H70 H -0.0866 0.3816 0.1223
H71 H -0.0202 0.3783 0.0808
H72 H 0.0183 0.3766 0.1508
O23 O 0.4006(19) 0.2836(11) 0.0522(12)
O24 O 0.544(3) 0.288(3) 0.038(3)
N9 N 0.469(3) 0.300(2) 0.0442(14)
C39 C 0.455(4) 0.3612(19) 0.041(3)
H73 H 0.5080 0.3797 0.0351
H74 H 0.4423 0.3745 0.0769
H75 H 0.4040 0.3698 0.0071
loop_
_geom_bond_atom_site_label_1
_geom_bond_atom_site_label_2
_geom_bond_site_symmetry_1
_geom_bond_site_symmetry_2
Pt1 P1 1_555 1_555
Pt2 P2 1_555 1_555
Pt3 P4 1_555 1_555
P1 C16 1_555 1_555
P2 C19 1_555 1_555
P3 Pt2 1_555 1_555
P4 C25 1_555 1_555
P5 Pt3 1_555 1_555
N1 Pt1 1_555 1_555
N2 Pt2 1_555 1_555
N3 Pt2 1_555 1_555
N4 Pt3 1_555 1_555
N5 Pt3 1_555 1_555
N6 Pt1 1_555 1_555
C1 N1 1_555 1_555
H1 C1 1_555 1_555
C2 N2 1_555 1_555
H2 C2 1_555 1_555
C3 N2 1_555 1_555
H3 C3 1_555 1_555
C4 N1 1_555 1_555
H4 C4 1_555 1_555
C5 N3 1_555 1_555
H5 C5 1_555 1_555
C6 N4 1_555 1_555
H6 C6 1_555 1_555
C7 N4 1_555 1_555
H7 C7 1_555 1_555
C8 N3 1_555 1_555
H8 C8 1_555 1_555
C9 N5 1_555 1_555
H9 C9 1_555 1_555
C10 N6 1_555 1_555
H10 C10 1_555 1_555
C11 N6 1_555 1_555
H11 C11 1_555 1_555
C12 N5 1_555 1_555
H12 C12 1_555 1_555
P6 Pt1 1_555 1_555
C13 P6 1_555 1_555
H13 C13 1_555 1_555
H14 C13 1_555 1_555
H15 C13 1_555 1_555
C14 P6 1_555 1_555
H16 C14 1_555 1_555
H17 C14 1_555 1_555
H18 C14 1_555 1_555
C15 P6 1_555 1_555
H19 C15 1_555 1_555
H20 C15 1_555 1_555
H21 C15 1_555 1_555
C16 H22 1_555 1_555
H23 C16 1_555 1_555
H24 C16 1_555 1_555
C17 P1 1_555 1_555
H25 C17 1_555 1_555
H26 C17 1_555 1_555
H27 C17 1_555 1_555
C18 P1 1_555 1_555
H28 C18 1_555 1_555
H29 C18 1_555 1_555
H30 C18 1_555 1_555
C19 H31 1_555 1_555
H32 C19 1_555 1_555
H33 C19 1_555 1_555
C20 P2 1_555 1_555
H34 C20 1_555 1_555
H35 C20 1_555 1_555
H36 C20 1_555 1_555
C21 P2 1_555 1_555
H37 C21 1_555 1_555
H38 C21 1_555 1_555
H39 C21 1_555 1_555
C22 P3 1_555 1_555
H40 C22 1_555 1_555
H41 C22 1_555 1_555
H42 C22 1_555 1_555
C23 P3 1_555 1_555
H43 C23 1_555 1_555
H44 C23 1_555 1_555
H45 C23 1_555 1_555
C24 P3 1_555 1_555
H46 C24 1_555 1_555
H47 C24 1_555 1_555
H48 C24 1_555 1_555
C25 H49 1_555 1_555
H50 C25 1_555 1_555
H51 C25 1_555 1_555
C26 P4 1_555 1_555
H52 C26 1_555 1_555
H53 C26 1_555 1_555
H54 C26 1_555 1_555
C27 P4 1_555 1_555
H55 C27 1_555 1_555
H56 C27 1_555 1_555
H57 C27 1_555 1_555
C28 P5 1_555 1_555
H58 C28 1_555 1_555
H59 C28 1_555 1_555
H60 C28 1_555 1_555
C29 P5 1_555 1_555
H61 C29 1_555 1_555
H62 C29 1_555 1_555
H63 C29 1_555 1_555
C30 P5 1_555 1_555
H64 C30 1_555 1_555
H65 C30 1_555 1_555
H66 C30 1_555 1_555
S1 O1 1_555 1_555
F1 C31 1_555 1_555
F2 C31 1_555 1_555
F3 C31 1_555 1_555
O2 S1 1_555 1_555
O3 S1 1_555 1_555
C31 S1 1_555 1_555
S2 O4 1_555 1_555
F4 C32 1_555 1_555
F5 C32 1_555 1_555
F6 C32 1_555 1_555
O5 S2 1_555 1_555
O6 S2 1_555 1_555
C32 S2 1_555 1_555
S3 O7 1_555 1_555
F7 C33 1_555 1_555
F8 C33 1_555 1_555
F9 C33 1_555 1_555
O8 S3 1_555 1_555
O9 S3 1_555 1_555
C33 S3 1_555 1_555
S4 O10 1_555 1_555
F10 C34 1_555 1_555
F11 C34 1_555 1_555
F12 C34 1_555 1_555
O11 S4 1_555 1_555
O12 S4 1_555 1_555
C34 S4 1_555 1_555
S5 O13 1_555 1_555
F13 C35 1_555 1_555
F14 C35 1_555 1_555
F15 C35 1_555 1_555
O14 S5 1_555 1_555
O15 S5 1_555 1_555
C35 S5 1_555 1_555
S6 O16 1_555 1_555
F16 C36 1_555 1_555
F17 C36 1_555 1_555
F18 C36 1_555 1_555
O17 S6 1_555 1_555
O18 S6 1_555 1_555
C36 S6 1_555 1_555
O19 N7 1_555 1_555
O20 N7 1_555 1_555
N7 C37 1_555 1_555
C37 H67 1_555 1_555
H68 C37 1_555 1_555
H69 C37 1_555 1_555
O21 N8 1_555 1_555
O22 N8 1_555 1_555
N8 C38 1_555 1_555
C38 H70 1_555 1_555
H71 C38 1_555 1_555
H72 C38 1_555 1_555
O23 N9 1_555 1_555
O24 N9 1_555 1_555
N9 C39 1_555 1_555
C39 H73 1_555 1_555
H74 C39 1_555 1_555
H75 C39 1_555 1_555
C1 C2 1_555 1_555
C3 C4 1_555 1_555
C5 C6 1_555 1_555
C7 C8 1_555 1_555
C9 C10 1_555 1_555
C11 C12 1_555 1_555

#END
