
#######################################################################
#
#                 Cambridge Crystallographic Data Centre
#                                CCDC 
#
#######################################################################
#
# If this CIF has been generated from an entry in the Cambridge 
# Structural Database, then it will include bibliographic, chemical, 
# crystal, experimental, refinement or atomic coordinate data resulting 
# from the CCDC's data processing and validation procedures.
#
#######################################################################

data_RAYCOM
_chemical_formula_moiety         
'C100 H80 N16 O8 Pd2 4+,12(C2 H6 O1 S1),4(N1 O3 1-)'
_chemical_name_systematic        
"tetrakis(\m-{N,N'-[methylenebis(4,1-phenylene)]bis(pyridine-3-carboxamide)})-di-palladium(ii) tetrakis(nitrate) dimethyl sulfoxide solvate"
_symmetry_cell_setting           triclinic
_symmetry_space_group_name_H-M   'P -1'
_symmetry_Int_Tables_number      2
_space_group_name_Hall           '-P 1'
loop_
_symmetry_equiv_pos_site_id
_symmetry_equiv_pos_as_xyz
1 x,y,z
2 -x,-y,-z
_cell_length_a                   13.5157(3)
_cell_length_b                   14.4561(3)
_cell_length_c                   19.2677(4)
_cell_angle_alpha                75.2990(10)
_cell_angle_beta                 84.3720(10)
_cell_angle_gamma                82.9070(10)
_cell_volume                     3604.75
_exptl_crystal_colour            yellow
_exptl_crystal_description       block
_cell_formula_units_Z            1
loop_
_atom_site_label
_atom_site_type_symbol
_atom_site_fract_x
_atom_site_fract_y
_atom_site_fract_z
C1 C 0.7875(5) 0.0792(4) 0.2192(3)
H1 H 0.8157 0.1366 0.1998
C2 C 0.7183(6) -0.0261(5) 0.3172(4)
H2 H 0.6995 -0.0433 0.3661
C3 C 0.7049(6) -0.0875(6) 0.2750(4)
H3 H 0.6759 -0.1442 0.2952
C4 C 0.7347(6) -0.0642(5) 0.2035(4)
H4 H 0.7259 -0.1047 0.1745
C5 C 0.7782(5) 0.0203(5) 0.1746(3)
C6 C 0.8131(5) 0.0567(5) 0.0962(3)
C7 C 0.8451(5) 0.0201(4) -0.0210(3)
C8 C 0.8041(6) 0.1050(5) -0.0641(4)
H5 H 0.7602 0.1475 -0.0440
C9 C 0.8289(7) 0.1264(5) -0.1373(4)
H6 H 0.8007 0.1835 -0.1661
C10 C 0.8944(5) 0.0653(5) -0.1689(3)
C11 C 0.9357(5) -0.0185(5) -0.1245(4)
H7 H 0.9809 -0.0604 -0.1443
C12 C 0.9112(5) -0.0411(5) -0.0514(4)
H8 H 0.9394 -0.0981 -0.0226
C13 C 0.9207(6) 0.0903(5) -0.2495(4)
H9 H 0.9731 0.0430 -0.2608
H10 H 0.8625 0.0864 -0.2740
C14 C 0.9554(6) 0.1896(5) -0.2782(4)
C15 C 0.8985(7) 0.2617(6) -0.3226(5)
H11 H 0.8370 0.2497 -0.3344
C16 C 0.9311(7) 0.3524(6) -0.3503(5)
H12 H 0.8903 0.4014 -0.3783
C17 C 1.0226(6) 0.3689(5) -0.3361(4)
C18 C 1.0786(7) 0.2991(7) -0.2889(6)
H13 H 1.1397 0.3116 -0.2767
C19 C 1.0440(7) 0.2110(6) -0.2598(6)
H14 H 1.0814 0.1649 -0.2270
C20 C 1.1176(6) 0.5065(5) -0.3439(4)
C21 C 1.1507(5) 0.5968(5) -0.3941(4)
C22 C 1.1761(6) 0.6073(6) -0.4665(4)
H15 H 1.1676 0.5590 -0.4887
C23 C 1.2143(7) 0.6911(6) -0.5057(4)
H16 H 1.2329 0.6989 -0.5545
C24 C 1.2249(5) 0.7628(5) -0.4726(4)
H17 H 1.2489 0.8196 -0.4993
C25 C 1.1649(5) 0.6695(5) -0.3630(3)
H18 H 1.1492 0.6619 -0.3139
C26 C 0.5577(5) 0.1910(5) 0.3763(4)
H19 H 0.5640 0.1364 0.4141
C27 C 0.4663(6) 0.2439(6) 0.3671(4)
H20 H 0.4116 0.2255 0.3987
C28 C 0.4557(6) 0.3241(6) 0.3111(4)
H21 H 0.3940 0.3604 0.3046
C29 C 0.5373(6) 0.3504(6) 0.2647(4)
C30 C 0.6270(5) 0.2949(5) 0.2764(4)
H22 H 0.6822 0.3118 0.2450
C31 C 0.5361(6) 0.4330(7) 0.2000(5)
N1 N 0.46205(3) 0.50664(3) 0.19444(2)
H23 H 0.4174 0.5057 0.2296
N2 N 0.74241(3) 0.93909(3) -0.25531(2)
H24 H 0.7442 0.9990 -0.2764
O1 O 0.61020(3) 0.44337(3) 0.15357(2)
O2 O 0.85009(3) 0.76505(3) -0.24714(2)
C32 C 0.45533(3) 0.58628(3) 0.13192(2)
C33 C 0.44754(3) 0.58224(3) 0.06137(2)
H25 H 0.4493 0.5231 0.0503
C34 C 0.43720(3) 0.66665(3) 0.00740(2)
H26 H 0.4320 0.6639 -0.0398
C35 C 0.43464(3) 0.75509(3) 0.02398(2)
C36 C 0.44243(3) 0.75913(3) 0.09453(2)
H27 H 0.4407 0.8183 0.1056
C37 C 0.45278(3) 0.67472(3) 0.14850(2)
H28 H 0.4580 0.6774 0.1957
C38 C 0.42859(3) 0.83993(3) -0.04099(2)
H29 H 0.4178 0.8979 -0.0234
H30 H 0.3693 0.8371 -0.0647
C39 C 0.51784(3) 0.85253(3) -0.09977(2)
C40 C 0.51827(3) 0.82894(3) -0.16539(2)
H31 H 0.4679 0.7955 -0.1738
C41 C 0.59391(3) 0.85536(3) -0.21853(2)
H32 H 0.5942 0.8396 -0.2624
C42 C 0.66913(3) 0.90538(3) -0.20604(2)
C43 C 0.66870(3) 0.92897(3) -0.14042(2)
H33 H 0.7190 0.9624 -0.1321
C44 C 0.59306(3) 0.90255(3) -0.08728(2)
H34 H 0.5928 0.9183 -0.0434
C45 C 0.83069(3) 0.85143(3) -0.27147(2)
C46 C 0.90562(3) 0.90221(3) -0.32757(2)
C47 C 1.00450(3) 0.86583(3) -0.31937(2)
H35 H 1.0196 0.8099 -0.2840
C48 C 1.05894(3) 0.99030(3) -0.41236(2)
H36 H 1.1107 1.0204 -0.4413
C49 C 0.95943(3) 1.02974(3) -0.42231(2)
H37 H 0.9456 1.0869 -0.4567
C50 C 0.88248(3) 0.98390(3) -0.38115(2)
H38 H 0.8163 1.0073 -0.3892
O3 O 0.83356(3) 0.13979(3) 0.07507(2)
O4 O 1.14939(3) 0.48114(3) -0.28409(2)
N3 N 0.75744(3) 0.05720(3) 0.28967(2)
N4 N 0.63778(3) 0.21627(3) 0.33219(2)
N5 N 1.20060(3) 0.75120(3) -0.40143(2)
N6 N 1.07951(3) 0.90944(3) -0.36134(2)
N7 N 0.81671(3) -0.00552(3) 0.05469(2)
H39 H 0.8015 -0.0629 0.0741
N8 N 1.05755(3) 0.46019(3) -0.37077(2)
H40 H 1.0378 0.4876 -0.4129
Pd1 Pd 0.77752(3) 0.14993(3) 0.34819(2)
C1A C 1.2125(5) 0.9208(4) -0.2192(3)
H1A H 1.1843 0.8634 -0.1998
C2A C 1.2817(6) 1.0261(5) -0.3172(4)
H2A H 1.3005 1.0433 -0.3661
C3A C 1.2951(6) 1.0875(6) -0.2750(4)
H3A H 1.3241 1.1442 -0.2952
C4A C 1.2653(6) 1.0642(5) -0.2035(4)
H4A H 1.2741 1.1047 -0.1745
C5A C 1.2218(5) 0.9797(5) -0.1746(3)
C6A C 1.1869(5) 0.9433(5) -0.0962(3)
C7A C 1.1549(5) 0.9799(4) 0.0210(3)
C8A C 1.1959(6) 0.8950(5) 0.0641(4)
H5A H 1.2398 0.8525 0.0440
C9A C 1.1711(7) 0.8736(5) 0.1373(4)
H6A H 1.1993 0.8165 0.1661
C10A C 1.1056(5) 0.9347(5) 0.1689(3)
C11A C 1.0643(5) 1.0185(5) 0.1245(4)
H7A H 1.0191 1.0604 0.1443
C12A C 1.0888(5) 1.0411(5) 0.0514(4)
H8A H 1.0606 1.0981 0.0226
C13A C 1.0793(6) 0.9097(5) 0.2495(4)
H9A H 1.0269 0.9570 0.2608
H10A H 1.1375 0.9136 0.2740
C14A C 1.0446(6) 0.8104(5) 0.2782(4)
C15A C 1.1015(7) 0.7383(6) 0.3226(5)
H11A H 1.1630 0.7503 0.3344
C16A C 1.0689(7) 0.6476(6) 0.3503(5)
H12A H 1.1097 0.5986 0.3783
C17A C 0.9774(6) 0.6311(5) 0.3361(4)
C18A C 0.9214(7) 0.7009(7) 0.2889(6)
H13A H 0.8603 0.6884 0.2767
C19A C 0.9560(7) 0.7890(6) 0.2598(6)
H14A H 0.9186 0.8351 0.2270
C20A C 0.8824(6) 0.4935(5) 0.3439(4)
C21A C 0.8493(5) 0.4032(5) 0.3941(4)
C22A C 0.8239(6) 0.3927(6) 0.4665(4)
H15A H 0.8324 0.4410 0.4887
C23A C 0.7857(7) 0.3089(6) 0.5057(4)
H16A H 0.7671 0.3011 0.5545
C24A C 0.7751(5) 0.2372(5) 0.4726(4)
H17A H 0.7511 0.1804 0.4993
C25A C 0.8351(5) 0.3305(5) 0.3630(3)
H18A H 0.8508 0.3381 0.3139
C26A C 1.4423(5) 0.8090(5) -0.3763(4)
H19A H 1.4360 0.8636 -0.4141
C27A C 1.5337(6) 0.7561(6) -0.3671(4)
H20A H 1.5884 0.7745 -0.3987
C28A C 1.5443(6) 0.6759(6) -0.3111(4)
H21A H 1.6060 0.6396 -0.3046
C29A C 1.4627(6) 0.6496(6) -0.2647(4)
C30A C 1.3730(5) 0.7051(5) -0.2764(4)
H22A H 1.3178 0.6882 -0.2450
C31A C 1.4639(6) 0.5670(7) -0.2000(5)
N1A N 1.53795(3) 0.49336(3) -0.19444(2)
H23A H 1.5826 0.4943 -0.2296
N2A N 1.25759(3) 0.06091(3) 0.25531(2)
H24A H 1.2558 0.0010 0.2764
O1A O 1.38980(3) 0.55663(3) -0.15357(2)
O2A O 1.14991(3) 0.23495(3) 0.24714(2)
C32A C 1.54467(3) 0.41372(3) -0.13192(2)
C33A C 1.55246(3) 0.41776(3) -0.06137(2)
H25A H 1.5507 0.4769 -0.0503
C34A C 1.56280(3) 0.33335(3) -0.00740(2)
H26A H 1.5680 0.3361 0.0398
C35A C 1.56536(3) 0.24491(3) -0.02398(2)
C36A C 1.55757(3) 0.24087(3) -0.09453(2)
H27A H 1.5593 0.1817 -0.1056
C37A C 1.54722(3) 0.32528(3) -0.14850(2)
H28A H 1.5420 0.3226 -0.1957
C38A C 1.57141(3) 0.16007(3) 0.04099(2)
H29A H 1.5822 0.1021 0.0234
H30A H 1.6307 0.1629 0.0647
C39A C 1.48216(3) 0.14747(3) 0.09977(2)
C40A C 1.48173(3) 0.17106(3) 0.16539(2)
H31A H 1.5321 0.2045 0.1738
C41A C 1.40609(3) 0.14464(3) 0.21853(2)
H32A H 1.4058 0.1604 0.2624
C42A C 1.33087(3) 0.09462(3) 0.20604(2)
C43A C 1.33130(3) 0.07103(3) 0.14042(2)
H33A H 1.2810 0.0376 0.1321
C44A C 1.40694(3) 0.09745(3) 0.08728(2)
H34A H 1.4072 0.0817 0.0434
C45A C 1.16931(3) 0.14857(3) 0.27147(2)
C46A C 1.09438(3) 0.09779(3) 0.32757(2)
C47A C 0.99550(3) 0.13417(3) 0.31937(2)
H35A H 0.9804 0.1901 0.2840
C48A C 0.94106(3) 0.00970(3) 0.41236(2)
H36A H 0.8893 -0.0204 0.4413
C49A C 1.04057(3) -0.02974(3) 0.42231(2)
H37A H 1.0544 -0.0869 0.4567
C50A C 1.11752(3) 0.01610(3) 0.38115(2)
H38A H 1.1837 -0.0073 0.3892
O3A O 1.16644(3) 0.86021(3) -0.07507(2)
O4A O 0.85061(3) 0.51886(3) 0.28409(2)
N3A N 1.24256(3) 0.94280(3) -0.28967(2)
N4A N 1.36222(3) 0.78373(3) -0.33219(2)
N5A N 0.79940(3) 0.24880(3) 0.40143(2)
N6A N 0.92049(3) 0.09056(3) 0.36134(2)
N7A N 1.18329(3) 1.00552(3) -0.05469(2)
H39A H 1.1985 1.0629 -0.0741
N8A N 0.94245(3) 0.53981(3) 0.37077(2)
H40A H 0.9622 0.5124 0.4129
Pd1A Pd 1.22248(3) 0.85007(3) -0.34819(2)
N11 N 0.67587(3) -0.05024(3) 0.51728(2)
O7 O 0.71037(3) 0.02649(3) 0.48647(2)
O8 O 0.68061(3) -0.08217(3) 0.58650(2)
O9 O 0.65083(3) -0.11180(3) 0.48706(2)
N12 N 0.31730(3) 0.54944(3) 0.34499(2)
O12 O 0.35596(3) 0.63042(3) 0.32776(2)
O13 O 0.29166(3) 0.51438(3) 0.29380(2)
O14 O 0.28045(3) 0.50818(3) 0.40988(2)
S1 S 0.10190(3) 0.64270(3) 0.85691(2)
O18 O 0.14030(3) 0.71442(3) 0.79276(2)
C64 C 0.18532(3) 0.62277(3) 0.92229(2)
H53 H 0.2506 0.6029 0.9034
H54 H 0.1646 0.5734 0.9628
H55 H 0.1873 0.6810 0.9372
C65 C 0.00461(3) 0.70548(3) 0.90132(2)
H56 H 0.0267 0.7640 0.9061
H57 H -0.0122 0.6660 0.9481
H58 H -0.0531 0.7203 0.8737
S2 S 0.61035(3) 0.16912(3) 0.64885(2)
O19 O 0.55440(3) 0.17764(3) 0.73687(2)
C66 C 0.70480(3) 0.11578(3) 0.66123(2)
H59 H 0.6980 0.0617 0.7016
H60 H 0.7504 0.1560 0.6711
H61 H 0.7300 0.0935 0.6194
C67 C 0.53186(3) 0.09843(3) 0.62473(2)
H62 H 0.5426 0.1025 0.5741
H63 H 0.4636 0.1207 0.6357
H64 H 0.5458 0.0329 0.6510
S3 S 0.65981(3) 0.60818(3) 0.39283(2)
C68 C 0.60701(3) 0.51902(3) 0.36028(2)
H65 H 0.5387 0.5408 0.3501
H66 H 0.6097 0.4593 0.3963
H67 H 0.6446 0.5098 0.3172
C69 C 0.56378(3) 0.61473(3) 0.46751(2)
H68 H 0.5708 0.6695 0.4856
H69 H 0.5724 0.5573 0.5054
H70 H 0.4985 0.6208 0.4502
O20 O 0.64420(3) 0.69914(3) 0.33809(2)
S4 S 0.81730(3) 0.72215(3) 0.06879(2)
O21 O 0.77835(3) 0.80078(3) 0.09554(2)
C70 C 0.75664(3) 0.70448(3) -0.00051(2)
H71 H 0.6892 0.6917 0.0161
H72 H 0.7908 0.6508 -0.0168
H73 H 0.7561 0.7611 -0.0395
C71 C 0.79482(3) 0.62668(3) 0.13518(2)
H74 H 0.8280 0.6285 0.1766
H75 H 0.8193 0.5692 0.1201
H76 H 0.7242 0.6273 0.1472
S6 S 0.81719(3) 0.50689(3) -0.14576(2)
O23 O 0.85291(3) 0.51864(3) -0.07894(2)
C74 C 0.90644(3) 0.53550(3) -0.21823(2)
H83 H 0.9168 0.6021 -0.2272
H84 H 0.8831 0.5236 -0.2603
H85 H 0.9683 0.4965 -0.2068
C75 C 0.82304(3) 0.38694(3) -0.11917(2)
H86 H 0.8563 0.3650 -0.0753
H87 H 0.8596 0.3595 -0.1557
H88 H 0.7566 0.3675 -0.1113
S8 S 0.07903(3) 0.30247(3) 0.46412(2)
O25 O 0.16348(3) 0.28079(3) 0.51686(2)
C78 C 0.15528(3) 0.30977(3) 0.38588(2)
H95 H 0.1889 0.3669 0.3757
H96 H 0.1155 0.3120 0.3468
H97 H 0.2038 0.2544 0.3917
C79 C 0.02729(3) 0.20815(3) 0.46518(2)
H98 H 0.0584 0.1540 0.4986
H99 H 0.0350 0.1965 0.4180
H100 H -0.0425 0.2175 0.4796
loop_
_geom_bond_atom_site_label_1
_geom_bond_atom_site_label_2
_geom_bond_site_symmetry_1
_geom_bond_site_symmetry_2
C1 H1 1_555 1_555
C2 H2 1_555 1_555
C3 C2 1_555 1_555
H3 C3 1_555 1_555
C4 C3 1_555 1_555
H4 C4 1_555 1_555
C5 C1 1_555 1_555
C6 C5 1_555 1_555
C7 C8 1_555 1_555
C8 H5 1_555 1_555
C9 C8 1_555 1_555
H6 C9 1_555 1_555
C10 C9 1_555 1_555
C11 C10 1_555 1_555
H7 C11 1_555 1_555
C12 C7 1_555 1_555
H8 C12 1_555 1_555
C13 C10 1_555 1_555
H9 C13 1_555 1_555
H10 C13 1_555 1_555
C14 C13 1_555 1_555
C15 C14 1_555 1_555
H11 C15 1_555 1_555
C16 C15 1_555 1_555
H12 C16 1_555 1_555
C17 C16 1_555 1_555
C18 C17 1_555 1_555
H13 C18 1_555 1_555
C19 C14 1_555 1_555
H14 C19 1_555 1_555
C20 C21 1_555 1_555
C21 C22 1_555 1_555
C22 H15 1_555 1_555
C23 C22 1_555 1_555
H16 C23 1_555 1_555
C24 C23 1_555 1_555
H17 C24 1_555 1_555
C25 C21 1_555 1_555
H18 C25 1_555 1_555
C26 H19 1_555 1_555
C27 C26 1_555 1_555
H20 C27 1_555 1_555
C28 C27 1_555 1_555
H21 C28 1_555 1_555
C29 C28 1_555 1_555
C30 C29 1_555 1_555
H22 C30 1_555 1_555
C31 C29 1_555 1_555
N1 C31 1_555 1_555
H23 N1 1_555 1_555
N2 H24 1_555 1_555
O1 C31 1_555 1_555
O2 C45 1_555 1_555
C32 N1 1_555 1_555
C33 C32 1_555 1_555
H25 C33 1_555 1_555
C34 C33 1_555 1_555
H26 C34 1_555 1_555
C35 C34 1_555 1_555
C36 C35 1_555 1_555
H27 C36 1_555 1_555
C37 C32 1_555 1_555
H28 C37 1_555 1_555
C38 C35 1_555 1_555
H29 C38 1_555 1_555
H30 C38 1_555 1_555
C39 C38 1_555 1_555
C40 C39 1_555 1_555
H31 C40 1_555 1_555
C41 C40 1_555 1_555
H32 C41 1_555 1_555
C42 N2 1_555 1_555
C43 C42 1_555 1_555
H33 C43 1_555 1_555
C44 C39 1_555 1_555
H34 C44 1_555 1_555
C45 N2 1_555 1_555
C46 C45 1_555 1_555
C47 C46 1_555 1_555
H35 C47 1_555 1_555
C48 H36 1_555 1_555
C49 C48 1_555 1_555
H37 C49 1_555 1_555
C50 C46 1_555 1_555
H38 C50 1_555 1_555
O3 C6 1_555 1_555
O4 C20 1_555 1_555
N3 C1 1_555 1_555
N4 C26 1_555 1_555
N5 C24 1_555 1_555
N6 C47 1_555 1_555
N7 C6 1_555 1_555
H39 N7 1_555 1_555
N8 C17 1_555 1_555
H40 N8 1_555 1_555
Pd1 N3 1_555 1_555
N11 O7 1_555 1_555
O8 N11 1_555 1_555
O9 N11 1_555 1_555
N12 O12 1_555 1_555
O13 N12 1_555 1_555
O14 N12 1_555 1_555
S1 O18 1_555 1_555
C64 S1 1_555 1_555
H53 C64 1_555 1_555
H54 C64 1_555 1_555
H55 C64 1_555 1_555
C65 S1 1_555 1_555
H56 C65 1_555 1_555
H57 C65 1_555 1_555
H58 C65 1_555 1_555
S2 O19 1_555 1_555
C66 S2 1_555 1_555
H59 C66 1_555 1_555
H60 C66 1_555 1_555
H61 C66 1_555 1_555
C67 S2 1_555 1_555
H62 C67 1_555 1_555
H63 C67 1_555 1_555
H64 C67 1_555 1_555
S3 C68 1_555 1_555
C68 H65 1_555 1_555
H66 C68 1_555 1_555
H67 C68 1_555 1_555
C69 S3 1_555 1_555
H68 C69 1_555 1_555
H69 C69 1_555 1_555
H70 C69 1_555 1_555
O20 S3 1_555 1_555
S4 O21 1_555 1_555
C70 S4 1_555 1_555
H71 C70 1_555 1_555
H72 C70 1_555 1_555
H73 C70 1_555 1_555
C71 S4 1_555 1_555
H74 C71 1_555 1_555
H75 C71 1_555 1_555
H76 C71 1_555 1_555
S6 O23 1_555 1_555
C74 S6 1_555 1_555
H83 C74 1_555 1_555
H84 C74 1_555 1_555
H85 C74 1_555 1_555
C75 S6 1_555 1_555
H86 C75 1_555 1_555
H87 C75 1_555 1_555
H88 C75 1_555 1_555
S8 O25 1_555 1_555
C78 S8 1_555 1_555
H95 C78 1_555 1_555
H96 C78 1_555 1_555
H97 C78 1_555 1_555
C79 S8 1_555 1_555
H98 C79 1_555 1_555
H99 C79 1_555 1_555
H100 C79 1_555 1_555
C1A H1A 1_555 1_555
C2A H2A 1_555 1_555
C3A C2A 1_555 1_555
H3A C3A 1_555 1_555
C4A C3A 1_555 1_555
H4A C4A 1_555 1_555
C5A C1A 1_555 1_555
C6A C5A 1_555 1_555
C7A C8A 1_555 1_555
C8A H5A 1_555 1_555
C9A C8A 1_555 1_555
H6A C9A 1_555 1_555
C10A C9A 1_555 1_555
C11A C10A 1_555 1_555
H7A C11A 1_555 1_555
C12A C7A 1_555 1_555
H8A C12A 1_555 1_555
C13A C10A 1_555 1_555
H9A C13A 1_555 1_555
H10A C13A 1_555 1_555
C14A C13A 1_555 1_555
C15A C14A 1_555 1_555
H11A C15A 1_555 1_555
C16A C15A 1_555 1_555
H12A C16A 1_555 1_555
C17A C16A 1_555 1_555
C18A C17A 1_555 1_555
H13A C18A 1_555 1_555
C19A C14A 1_555 1_555
H14A C19A 1_555 1_555
C20A C21A 1_555 1_555
C21A C22A 1_555 1_555
C22A H15A 1_555 1_555
C23A C22A 1_555 1_555
H16A C23A 1_555 1_555
C24A C23A 1_555 1_555
H17A C24A 1_555 1_555
C25A C21A 1_555 1_555
H18A C25A 1_555 1_555
C26A H19A 1_555 1_555
C27A C26A 1_555 1_555
H20A C27A 1_555 1_555
C28A C27A 1_555 1_555
H21A C28A 1_555 1_555
C29A C28A 1_555 1_555
C30A C29A 1_555 1_555
H22A C30A 1_555 1_555
C31A C29A 1_555 1_555
N1A C31A 1_555 1_555
H23A N1A 1_555 1_555
N2A H24A 1_555 1_555
O1A C31A 1_555 1_555
O2A C45A 1_555 1_555
C32A N1A 1_555 1_555
C33A C32A 1_555 1_555
H25A C33A 1_555 1_555
C34A C33A 1_555 1_555
H26A C34A 1_555 1_555
C35A C34A 1_555 1_555
C36A C35A 1_555 1_555
H27A C36A 1_555 1_555
C37A C32A 1_555 1_555
H28A C37A 1_555 1_555
C38A C35A 1_555 1_555
H29A C38A 1_555 1_555
H30A C38A 1_555 1_555
C39A C38A 1_555 1_555
C40A C39A 1_555 1_555
H31A C40A 1_555 1_555
C41A C40A 1_555 1_555
H32A C41A 1_555 1_555
C42A N2A 1_555 1_555
C43A C42A 1_555 1_555
H33A C43A 1_555 1_555
C44A C39A 1_555 1_555
H34A C44A 1_555 1_555
C45A N2A 1_555 1_555
C46A C45A 1_555 1_555
C47A C46A 1_555 1_555
H35A C47A 1_555 1_555
C48A H36A 1_555 1_555
C49A C48A 1_555 1_555
H37A C49A 1_555 1_555
C50A C46A 1_555 1_555
H38A C50A 1_555 1_555
O3A C6A 1_555 1_555
O4A C20A 1_555 1_555
N3A C1A 1_555 1_555
N4A C26A 1_555 1_555
N5A Pd1 1_555 1_555
N6A Pd1 1_555 1_555
N7A C6A 1_555 1_555
H39A N7A 1_555 1_555
N8A C17A 1_555 1_555
H40A N8A 1_555 1_555
Pd1A N5 1_555 1_555
C2 N3 1_555 1_555
C4 C5 1_555 1_555
C7 N7 1_555 1_555
C11 C12 1_555 1_555
C18 C19 1_555 1_555
C20 N8 1_555 1_555
C25 N5 1_555 1_555
C30 N4 1_555 1_555
C36 C37 1_555 1_555
C41 C42 1_555 1_555
C43 C44 1_555 1_555
C48 N6 1_555 1_555
C49 C50 1_555 1_555
N4 Pd1 1_555 1_555
N6 Pd1A 1_555 1_555
C2A N3A 1_555 1_555
C4A C5A 1_555 1_555
C7A N7A 1_555 1_555
C11A C12A 1_555 1_555
C18A C19A 1_555 1_555
C20A N8A 1_555 1_555
C24A N5A 1_555 1_555
C25A N5A 1_555 1_555
C30A N4A 1_555 1_555
C36A C37A 1_555 1_555
C41A C42A 1_555 1_555
C43A C44A 1_555 1_555
C47A N6A 1_555 1_555
C48A N6A 1_555 1_555
C49A C50A 1_555 1_555
N3A Pd1A 1_555 1_555
N4A Pd1A 1_555 1_555

#END
