
#######################################################################
#
#                 Cambridge Crystallographic Data Centre
#                                CCDC 
#
#######################################################################
#
# If this CIF has been generated from an entry in the Cambridge 
# Structural Database, then it will include bibliographic, chemical, 
# crystal, experimental, refinement or atomic coordinate data resulting 
# from the CCDC's data processing and validation procedures.
#
#######################################################################

data_REJBUF
_chemical_formula_moiety         'C63 H52 Ir2 N6 O1,C1 H2 Cl2'
_chemical_name_systematic        
'(\m~2~-Hydroxo)-(\m~2~-3,5-diphenylpyrazol-1,2-diyl)-tetrakis(2-phenylpyridine)-di-iridium dichloromethane solvate'
_symmetry_cell_setting           monoclinic
_symmetry_space_group_name_H-M   'P 21/c'
_symmetry_Int_Tables_number      14
_space_group_name_Hall           '-P 2ybc'
loop_
_symmetry_equiv_pos_site_id
_symmetry_equiv_pos_as_xyz
1 x,y,z
2 -x,1/2+y,1/2-z
3 -x,-y,-z
4 x,1/2-y,1/2+z
_cell_length_a                   25.744(5)
_cell_length_b                   11.615(2)
_cell_length_c                   20.613(4)
_cell_angle_alpha                90
_cell_angle_beta                 90.561(3)
_cell_angle_gamma                90
_cell_volume                     6163.33
_exptl_crystal_colour            yellow
_exptl_crystal_description       block
_cell_formula_units_Z            4
loop_
_atom_site_label
_atom_site_type_symbol
_atom_site_fract_x
_atom_site_fract_y
_atom_site_fract_z
Ir1 Ir 0.687150(10) 0.17191(2) 0.525129(12)
Ir2 Ir 0.806306(11) 0.04291(2) 0.447729(12)
O1 O 0.7428(2) 0.0361(5) 0.5133(3)
N1 N 0.6280(2) 0.0967(5) 0.4733(3)
N2 N 0.7380(2) 0.2478(5) 0.5878(3)
N3 N 0.7583(2) -0.0166(5) 0.3760(3)
N4 N 0.8599(2) 0.0853(5) 0.5170(3)
N5 N 0.7796(2) 0.2210(5) 0.4365(3)
N6 N 0.7272(2) 0.2421(5) 0.4407(3)
C1 C 0.6311(3) -0.0033(7) 0.4406(4)
H1 H 0.6634 -0.0383 0.4363
C2 C 0.5888(4) -0.0549(8) 0.4138(4)
H2 H 0.5918 -0.1256 0.3931
C3 C 0.5402(3) -0.0001(9) 0.4177(4)
H3 H 0.5107 -0.0324 0.3987
C4 C 0.5378(3) 0.1006(8) 0.4497(4)
H4 H 0.5059 0.1374 0.4526
C5 C 0.5814(3) 0.1529(7) 0.4789(4)
C6 C 0.5824(3) 0.2593(7) 0.5139(4)
C7 C 0.5392(3) 0.3295(7) 0.5225(4)
H5 H 0.5067 0.3063 0.5072
C8 C 0.5450(4) 0.4348(9) 0.5540(5)
H6 H 0.5164 0.4828 0.5590
C9 C 0.5922(4) 0.4674(8) 0.5775(5)
C10 C 0.6361(4) 0.3958(8) 0.5716(4)
H7 H 0.6678 0.4175 0.5898
C11 C 0.6312(3) 0.2908(6) 0.5380(4)
C12 C 0.5975(5) 0.5818(9) 0.6129(6)
H8 H 0.5726 0.5854 0.6471
H9 H 0.5915 0.6438 0.5830
H10 H 0.6319 0.5882 0.6310
C13 C 0.7698(3) 0.3391(7) 0.5712(4)
H11 H 0.7696 0.3674 0.5290
C14 C 0.8026(3) 0.3890(8) 0.6186(4)
H12 H 0.8245 0.4497 0.6080
C15 C 0.8015(4) 0.3457(9) 0.6815(5)
H13 H 0.8243 0.3759 0.7125
C16 C 0.7682(3) 0.2606(9) 0.6991(5)
H14 H 0.7668 0.2342 0.7417
C17 C 0.7356(3) 0.2138(8) 0.6497(4)
C18 C 0.6964(3) 0.1231(7) 0.6620(4)
C19 C 0.6894(3) 0.0703(8) 0.7220(4)
H15 H 0.7101 0.0903 0.7575
C20 C 0.6508(3) -0.0128(8) 0.7279(4)
H16 H 0.6471 -0.0512 0.7671
C21 C 0.6186(3) -0.0392(6) 0.6776(4)
C22 C 0.6252(3) 0.0143(7) 0.6172(4)
H17 H 0.6030 -0.0045 0.5829
C23 C 0.6650(3) 0.0960(7) 0.6076(3)
C24 C 0.5763(3) -0.1235(8) 0.6848(4)
H18 H 0.5890 -0.1899 0.7077
H19 H 0.5638 -0.1463 0.6427
H20 H 0.5484 -0.0893 0.7087
C25 C 0.7316(3) 0.0490(7) 0.3324(3)
H21 H 0.7355 0.1286 0.3338
C26 C 0.6993(3) 0.0021(8) 0.2868(4)
H22 H 0.6826 0.0495 0.2568
C27 C 0.6913(4) -0.1142(10) 0.2849(4)
H23 H 0.6683 -0.1468 0.2551
C28 C 0.7189(4) -0.1825(8) 0.3292(5)
H24 H 0.7144 -0.2619 0.3283
C29 C 0.7523(3) -0.1352(7) 0.3739(4)
C30 C 0.7866(3) -0.1970(7) 0.4198(4)
C31 C 0.7886(4) -0.3150(8) 0.4242(5)
H25 H 0.7665 -0.3594 0.3985
C32 C 0.8228(4) -0.3678(8) 0.4658(5)
H26 H 0.8237 -0.4476 0.4691
C33 C 0.8574(4) -0.2979(7) 0.5045(4)
C34 C 0.8537(3) -0.1822(6) 0.5005(3)
H27 H 0.8753 -0.1371 0.5266
C35 C 0.8178(3) -0.1268(6) 0.4577(3)
C36 C 0.8955(4) -0.3555(8) 0.5523(5)
H28 H 0.9235 -0.3035 0.5620
H29 H 0.9092 -0.4243 0.5331
H30 H 0.8777 -0.3748 0.5915
C37 C 0.8486(3) 0.0966(7) 0.5805(4)
H31 H 0.8145 0.0881 0.5940
C38 C 0.8872(4) 0.1208(9) 0.6261(5)
H32 H 0.8790 0.1292 0.6697
C39 C 0.9377(4) 0.1321(9) 0.6061(5)
H33 H 0.9639 0.1467 0.6364
C40 C 0.9500(4) 0.1216(8) 0.5402(5)
H34 H 0.9838 0.1324 0.5262
C41 C 0.9103(3) 0.0948(7) 0.4960(4)
C42 C 0.9154(3) 0.0738(7) 0.4255(4)
C43 C 0.9632(3) 0.0798(8) 0.3959(5)
H35 H 0.9931 0.0969 0.4199
C44 C 0.9657(4) 0.0592(10) 0.3284(5)
H36 H 0.9971 0.0661 0.3068
C45 C 0.9202(4) 0.0282(10) 0.2941(4)
C46 C 0.8735(4) 0.0234(8) 0.3264(4)
H37 H 0.8436 0.0029 0.3035
C47 C 0.8701(3) 0.0486(7) 0.3926(4)
C48 C 0.9236(5) 0.0026(15) 0.2219(5)
H38 H 0.9202 0.0731 0.1978
H39 H 0.8962 -0.0491 0.2094
H40 H 0.9566 -0.0321 0.2128
C49 C 0.8006(3) 0.3056(6) 0.4036(4)
C50 C 0.7621(3) 0.3829(6) 0.3823(4)
H41 H 0.7666 0.4483 0.3569
C51 C 0.7165(3) 0.3407(6) 0.4070(4)
C52 C 0.8575(3) 0.3264(7) 0.3927(4)
C53 C 0.8884(3) 0.3435(6) 0.4497(4)
H42 H 0.8745 0.3348 0.4909
C54 C 0.9394(3) 0.3733(8) 0.4410(5)
H43 H 0.9604 0.3852 0.4773
C55 C 0.9609(4) 0.3864(10) 0.3798(5)
H44 H 0.9957 0.4062 0.3755
C56 C 0.9309(4) 0.3701(12) 0.3272(5)
H45 H 0.9452 0.3778 0.2861
C57 C 0.8786(4) 0.3417(8) 0.3334(4)
H46 H 0.8580 0.3332 0.2964
C58 C 0.6635(3) 0.3870(7) 0.3973(3)
C59 C 0.6242(3) 0.3210(10) 0.3687(4)
H47 H 0.6318 0.2442 0.3603
C60 C 0.5763(4) 0.3585(13) 0.3522(5)
H48 H 0.5515 0.3093 0.3343
C61 C 0.5665(5) 0.4680(17) 0.3626(6)
H49 H 0.5344 0.4962 0.3489
C62 C 0.6025(6) 0.5494(11) 0.3944(6)
H50 H 0.5931 0.6256 0.4017
C63 C 0.6539(5) 0.5053(10) 0.4142(5)
H51 H 0.6783 0.5505 0.4359
H54 H 0.729(3) -0.022(6) 0.516(3)
Cl1 Cl 0.50329(10) 0.1936(3) 0.70168(15)
Cl2 Cl 0.56859(10) 0.3853(2) 0.74315(14)
C64 C 0.5649(4) 0.2602(9) 0.6948(5)
H52 H 0.5918 0.2066 0.7084
H53 H 0.5710 0.2804 0.6499
loop_
_geom_bond_atom_site_label_1
_geom_bond_atom_site_label_2
_geom_bond_site_symmetry_1
_geom_bond_site_symmetry_2
Ir1 O1 1_555 1_555
Ir2 O1 1_555 1_555
Cl1 C64 1_555 1_555
Cl2 C64 1_555 1_555
O1 H54 1_555 1_555
N1 Ir1 1_555 1_555
N2 Ir1 1_555 1_555
N3 Ir2 1_555 1_555
N4 Ir2 1_555 1_555
N5 Ir2 1_555 1_555
N6 Ir1 1_555 1_555
C1 N1 1_555 1_555
H1 C1 1_555 1_555
C2 C1 1_555 1_555
H2 C2 1_555 1_555
C3 C2 1_555 1_555
H3 C3 1_555 1_555
C4 C3 1_555 1_555
H4 C4 1_555 1_555
C5 N1 1_555 1_555
C6 C5 1_555 1_555
C7 C6 1_555 1_555
H5 C7 1_555 1_555
C8 C7 1_555 1_555
H6 C8 1_555 1_555
C9 C8 1_555 1_555
C10 C9 1_555 1_555
H7 C10 1_555 1_555
C11 Ir1 1_555 1_555
C12 C9 1_555 1_555
H8 C12 1_555 1_555
H9 C12 1_555 1_555
H10 C12 1_555 1_555
C13 N2 1_555 1_555
H11 C13 1_555 1_555
C14 C13 1_555 1_555
H12 C14 1_555 1_555
C15 C14 1_555 1_555
H13 C15 1_555 1_555
C16 C15 1_555 1_555
H14 C16 1_555 1_555
C17 N2 1_555 1_555
C18 C17 1_555 1_555
C19 C18 1_555 1_555
H15 C19 1_555 1_555
C20 C19 1_555 1_555
H16 C20 1_555 1_555
C21 C20 1_555 1_555
C22 C21 1_555 1_555
H17 C22 1_555 1_555
C23 Ir1 1_555 1_555
C24 C21 1_555 1_555
H18 C24 1_555 1_555
H19 C24 1_555 1_555
H20 C24 1_555 1_555
C25 N3 1_555 1_555
H21 C25 1_555 1_555
C26 C25 1_555 1_555
H22 C26 1_555 1_555
C27 C26 1_555 1_555
H23 C27 1_555 1_555
C28 C27 1_555 1_555
H24 C28 1_555 1_555
C29 N3 1_555 1_555
C30 C29 1_555 1_555
C31 C30 1_555 1_555
H25 C31 1_555 1_555
C32 C31 1_555 1_555
H26 C32 1_555 1_555
C33 C32 1_555 1_555
C34 C33 1_555 1_555
H27 C34 1_555 1_555
C35 Ir2 1_555 1_555
C36 C33 1_555 1_555
H28 C36 1_555 1_555
H29 C36 1_555 1_555
H30 C36 1_555 1_555
C37 N4 1_555 1_555
H31 C37 1_555 1_555
C38 C37 1_555 1_555
H32 C38 1_555 1_555
C39 C38 1_555 1_555
H33 C39 1_555 1_555
C40 C39 1_555 1_555
H34 C40 1_555 1_555
C41 N4 1_555 1_555
C42 C41 1_555 1_555
C43 C42 1_555 1_555
H35 C43 1_555 1_555
C44 C43 1_555 1_555
H36 C44 1_555 1_555
C45 C44 1_555 1_555
C46 C45 1_555 1_555
H37 C46 1_555 1_555
C47 Ir2 1_555 1_555
C48 C45 1_555 1_555
H38 C48 1_555 1_555
H39 C48 1_555 1_555
H40 C48 1_555 1_555
C49 N5 1_555 1_555
C50 C49 1_555 1_555
H41 C50 1_555 1_555
C51 N6 1_555 1_555
C52 C49 1_555 1_555
C53 C52 1_555 1_555
H42 C53 1_555 1_555
C54 C53 1_555 1_555
H43 C54 1_555 1_555
C55 C54 1_555 1_555
H44 C55 1_555 1_555
C56 C55 1_555 1_555
H45 C56 1_555 1_555
C57 C52 1_555 1_555
H46 C57 1_555 1_555
C58 C51 1_555 1_555
C59 C58 1_555 1_555
H47 C59 1_555 1_555
C60 C59 1_555 1_555
H48 C60 1_555 1_555
C61 C60 1_555 1_555
H49 C61 1_555 1_555
C62 C61 1_555 1_555
H50 C62 1_555 1_555
C63 C58 1_555 1_555
H51 C63 1_555 1_555
C64 H52 1_555 1_555
H53 C64 1_555 1_555
N5 N6 1_555 1_555
C4 C5 1_555 1_555
C6 C11 1_555 1_555
C10 C11 1_555 1_555
C16 C17 1_555 1_555
C18 C23 1_555 1_555
C22 C23 1_555 1_555
C28 C29 1_555 1_555
C30 C35 1_555 1_555
C34 C35 1_555 1_555
C40 C41 1_555 1_555
C42 C47 1_555 1_555
C46 C47 1_555 1_555
C50 C51 1_555 1_555
C56 C57 1_555 1_555
C62 C63 1_555 1_555

#END
