
#######################################################################
#
#                 Cambridge Crystallographic Data Centre
#                                CCDC 
#
#######################################################################
#
# If this CIF has been generated from an entry in the Cambridge 
# Structural Database, then it will include bibliographic, chemical, 
# crystal, experimental, refinement or atomic coordinate data resulting 
# from the CCDC's data processing and validation procedures.
#
#######################################################################

data_ROHPOV
_chemical_formula_moiety         
'C104 H84 F6 Hg2 N8 O14 S2 2+,2(C1 F3 O3 S1 1-),4(C2 H3 N1)'
_chemical_name_systematic        
"tetrakis(acetonitrile)-diaqua-bis(trifluoromethanesulfonato)-bis(\m-3,3'-((4,5,6-trimethoxy-1,3-phenylene)dianthracene-10,9-diyl)bispyridine)-di-mercury(ii) bis(trifluoromethanesulfonate) acetonitrile solvate"
_symmetry_cell_setting           monoclinic
_symmetry_space_group_name_H-M   'P 21/n'
_symmetry_Int_Tables_number      14
_space_group_name_Hall           '-P 2yn'
loop_
_symmetry_equiv_pos_site_id
_symmetry_equiv_pos_as_xyz
1 x,y,z
2 1/2-x,1/2+y,1/2-z
3 -x,-y,-z
4 1/2+x,1/2-y,1/2+z
_cell_length_a                   8.738(2)
_cell_length_b                   29.632(7)
_cell_length_c                   22.840(5)
_cell_angle_alpha                90
_cell_angle_beta                 97.568(3)
_cell_angle_gamma                90
_cell_volume                     5862.32
_cell_formula_units_Z            2
loop_
_atom_site_label
_atom_site_type_symbol
_atom_site_fract_x
_atom_site_fract_y
_atom_site_fract_z
Hg1 Hg 0.69629(4) -0.01197(2) 0.69074(2)
S1 S 0.3120(3) 0.00820(7) 0.74942(12)
N1 N 0.3563(9) 0.0810(2) 1.3111(3)
F1 F 0.3726(8) 0.0726(2) 0.6784(3)
O1 O 0.4772(8) 0.0001(2) 0.7631(3)
O2 O 0.9377(8) -0.0234(2) 0.6384(3)
O3 O 0.8630(8) 0.2853(2) 1.1395(3)
O4 O 0.2417(11) -0.0147(2) 0.6980(4)
F2 F 0.3729(9) 0.0944(2) 0.7687(3)
O5 O 0.9822(8) 0.2727(2) 0.9420(3)
O6 O 1.0039(8) 0.3186(2) 1.0471(3)
F3 F 0.1584(8) 0.0807(2) 0.7126(4)
N2 N 0.7474(9) 0.0569(2) 0.6949(3)
O7 O 0.2277(11) 0.0074(3) 0.7985(4)
C1 C 0.8381(10) 0.1231(3) 0.6518(3)
H1 H 0.8682 0.1380 0.6183
C2 C 0.7953(10) 0.0789(3) 0.6479(4)
H2 H 0.7987 0.0630 0.6119
C3 C 0.7888(10) 0.1244(3) 0.7532(3)
C4 C 0.4263(10) 0.1011(3) 1.2690(4)
H3 H 0.4526 0.0831 1.2373
C5 C 0.8405(10) 0.2632(3) 1.0856(3)
C6 C 0.7431(10) 0.0802(3) 0.7462(3)
H4 H 0.7069 0.0651 0.7784
C7 C 0.3211(11) 0.1057(3) 1.3577(4)
H5 H 0.2750 0.0915 1.3883
C8 C 0.8381(11) 0.1465(3) 0.7043(4)
H6 H 0.8709 0.1771 0.7073
N3 N 0.5404(12) -0.0029(4) 0.5831(4)
C9 C 0.8109(10) 0.1918(3) 0.9218(3)
C10 C 0.7585(9) 0.2233(3) 1.0788(3)
C11 C 0.4616(10) 0.1461(3) 1.2696(3)
C12 C 0.5388(10) 0.1664(3) 1.2210(3)
C13 C 0.7023(9) 0.1857(3) 0.8169(3)
C14 C 0.4569(10) 0.1979(3) 1.1822(3)
C15 C 0.7134(9) 0.2087(3) 0.8722(3)
C16 C 0.6916(10) 0.1546(3) 1.2154(3)
C17 C 0.7650(10) 0.1733(3) 1.1681(3)
C18 C 0.5280(10) 0.2645(3) 0.8293(4)
H7 H 0.4713 0.2915 0.8330
C19 C 0.7926(9) 0.1474(3) 0.8112(3)
C20 C 0.5955(10) 0.2025(3) 0.7687(4)
H8 H 0.5829 0.1868 0.7322
C21 C 0.6230(10) 0.2490(3) 0.8762(4)
H9 H 0.6307 0.2650 0.9126
C22 C 0.3047(10) 0.2117(3) 1.1869(4)
H10 H 0.2530 0.1991 1.2171
C23 C 0.5318(10) 0.2163(3) 1.1348(3)
C24 C 1.0010(11) 0.1320(3) 1.2021(4)
H11 H 1.1047 0.1243 1.1981
C25 C 0.6821(10) 0.2040(3) 1.1285(3)
C26 C 0.9150(10) 0.2806(3) 1.0398(3)
C27 C 0.5109(10) 0.2412(3) 0.7745(4)
H12 H 0.4417 0.2521 0.7420
C28 C 0.4478(10) 0.2479(3) 1.0959(4)
H13 H 0.4946 0.2603 1.0643
C29 C 0.8969(10) 0.1529(3) 0.9164(3)
C30 C 0.3057(13) 0.0664(4) 0.7263(5)
C31 C 0.9888(11) 0.0919(3) 0.8562(4)
H14 H 0.9887 0.0774 0.8191
C32 C 0.2577(15) 0.0162(4) 0.5401(6)
H15 H 0.1962 0.0211 0.5725
H16 H 0.2134 -0.0087 0.5153
H17 H 0.2569 0.0437 0.5163
C33 C 0.7817(11) 0.1240(3) 1.2554(4)
H18 H 0.7359 0.1112 1.2871
C34 C 0.3013(11) 0.2607(3) 1.1032(4)
H19 H 0.2476 0.2819 1.0768
C35 C 0.9095(10) 0.2566(3) 0.9873(3)
C36 C 0.2295(11) 0.2425(3) 1.1497(4)
H20 H 0.1283 0.2519 1.1551
C37 C 0.7473(10) 0.2003(3) 1.0252(3)
H21 H 0.6875 0.1735 1.0198
N4 N 0.8575(16) -0.0173(3) 0.7978(5)
C38 C 0.4222(11) 0.1724(3) 1.3166(4)
H22 H 0.4428 0.2039 1.3184
C39 C 0.8920(10) 0.1297(3) 0.8604(3)
C40 C 1.0826(11) 0.0759(3) 0.9044(4)
H23 H 1.1459 0.0503 0.9006
C41 C 0.8240(10) 0.2165(3) 0.9793(3)
C42 C 0.9996(11) 0.1344(3) 0.9657(4)
H24 H 1.0064 0.1487 1.0032
C43 C 0.4156(15) 0.0052(4) 0.5643(5)
C44 C 0.9273(11) 0.1129(3) 1.2494(4)
H25 H 0.9824 0.0924 1.2764
C45 C 0.9220(10) 0.1605(3) 1.1637(4)
H26 H 0.9713 0.1727 1.1325
C46 C 0.3520(12) 0.1511(3) 1.3606(4)
H27 H 0.3253 0.1683 1.3929
C47 C 1.0856(12) 0.0972(3) 0.9593(4)
H28 H 1.1493 0.0853 0.9927
C48 C 1.1401(13) 0.2609(4) 0.9460(5)
H29 H 1.1987 0.2774 0.9788
H30 H 1.1792 0.2688 0.9090
H31 H 1.1517 0.2284 0.9529
C49 C 0.7562(14) 0.3164(4) 1.1534(5)
H32 H 0.6887 0.3251 1.1175
H33 H 0.8100 0.3432 1.1709
H34 H 0.6941 0.3031 1.1817
C50 C 0.9338(17) 0.3592(4) 1.0381(7)
H35 H 0.8445 0.3563 1.0075
H36 H 1.0067 0.3810 1.0253
H37 H 0.8993 0.3696 1.0749
C51 C 0.9174(17) -0.0300(5) 0.8444(5)
C52 C 1.021(2) -0.0416(6) 0.8965(6)
H38 H 1.1282 -0.0385 0.8883
H39 H 1.0028 -0.0728 0.9078
H40 H 1.0042 -0.0213 0.9289
Hg1B Hg 0.30371(4) 0.01197(2) 1.30926(2)
S1B S 0.6880(3) -0.00820(7) 1.25058(12)
N1B N 0.6437(9) -0.0810(2) 0.6889(3)
F1B F 0.6274(8) -0.0726(2) 1.3216(3)
O1B O 0.5228(8) -0.0001(2) 1.2369(3)
O2B O 0.0623(8) 0.0234(2) 1.3616(3)
O3B O 0.1370(8) -0.2853(2) 0.8605(3)
O4B O 0.7583(11) 0.0147(2) 1.3020(4)
F2B F 0.6271(9) -0.0944(2) 1.2313(3)
O5B O 0.0178(8) -0.2727(2) 1.0580(3)
O6B O -0.0039(8) -0.3186(2) 0.9529(3)
F3B F 0.8416(8) -0.0807(2) 1.2874(4)
N2B N 0.2526(9) -0.0569(2) 1.3051(3)
O7B O 0.7723(11) -0.0074(3) 1.2015(4)
C1B C 0.1619(10) -0.1231(3) 1.3482(3)
H1B H 0.1318 -0.1380 1.3817
C2B C 0.2047(10) -0.0789(3) 1.3521(4)
H2B H 0.2013 -0.0630 1.3881
C3B C 0.2112(10) -0.1244(3) 1.2468(3)
C4B C 0.5737(10) -0.1011(3) 0.7310(4)
H3B H 0.5474 -0.0831 0.7627
C5B C 0.1595(10) -0.2632(3) 0.9144(3)
C6B C 0.2569(10) -0.0802(3) 1.2538(3)
H4B H 0.2931 -0.0651 1.2216
C7B C 0.6789(11) -0.1057(3) 0.6423(4)
H5B H 0.7250 -0.0915 0.6117
C8B C 0.1619(11) -0.1465(3) 1.2957(4)
H6B H 0.1291 -0.1771 1.2927
N3B N 0.4596(12) 0.0029(4) 1.4169(4)
C9B C 0.1891(10) -0.1918(3) 1.0782(3)
C10B C 0.2415(9) -0.2233(3) 0.9212(3)
C11B C 0.5384(10) -0.1461(3) 0.7304(3)
C12B C 0.4612(10) -0.1664(3) 0.7790(3)
C13B C 0.2977(9) -0.1857(3) 1.1831(3)
C14B C 0.5431(10) -0.1979(3) 0.8178(3)
C15B C 0.2866(9) -0.2087(3) 1.1278(3)
C16B C 0.3084(10) -0.1546(3) 0.7846(3)
C17B C 0.2350(10) -0.1733(3) 0.8319(3)
C18B C 0.4720(10) -0.2645(3) 1.1707(4)
H7B H 0.5287 -0.2915 1.1670
C19B C 0.2074(9) -0.1474(3) 1.1888(3)
C20B C 0.4045(10) -0.2025(3) 1.2313(4)
H8B H 0.4171 -0.1868 1.2678
C21B C 0.3770(10) -0.2490(3) 1.1238(4)
H9B H 0.3693 -0.2650 1.0874
C22B C 0.6953(10) -0.2117(3) 0.8131(4)
H10B H 0.7470 -0.1991 0.7829
C23B C 0.4682(10) -0.2163(3) 0.8652(3)
C24B C -0.0010(11) -0.1320(3) 0.7979(4)
H11B H -0.1047 -0.1243 0.8019
C25B C 0.3179(10) -0.2040(3) 0.8715(3)
C26B C 0.0850(10) -0.2806(3) 0.9602(3)
C27B C 0.4891(10) -0.2412(3) 1.2255(4)
H12B H 0.5583 -0.2521 1.2580
C28B C 0.5522(10) -0.2479(3) 0.9041(4)
H13B H 0.5054 -0.2603 0.9357
C29B C 0.1031(10) -0.1529(3) 1.0836(3)
C30B C 0.6943(13) -0.0664(4) 1.2737(5)
C31B C 0.0112(11) -0.0919(3) 1.1438(4)
H14B H 0.0113 -0.0774 1.1809
C32B C 0.7423(15) -0.0162(4) 1.4599(6)
H15B H 0.8038 -0.0211 1.4275
H16B H 0.7866 0.0087 1.4847
H17B H 0.7431 -0.0437 1.4837
C33B C 0.2183(11) -0.1240(3) 0.7446(4)
H18B H 0.2641 -0.1112 0.7129
C34B C 0.6987(11) -0.2607(3) 0.8968(4)
H19B H 0.7524 -0.2819 0.9232
C35B C 0.0905(10) -0.2566(3) 1.0127(3)
C36B C 0.7705(11) -0.2425(3) 0.8503(4)
H20B H 0.8717 -0.2519 0.8449
C37B C 0.2527(10) -0.2003(3) 0.9748(3)
H21B H 0.3125 -0.1735 0.9802
N4B N 0.1425(16) 0.0173(3) 1.2022(5)
C38B C 0.5778(11) -0.1724(3) 0.6834(4)
H22B H 0.5572 -0.2039 0.6816
C39B C 0.1080(10) -0.1297(3) 1.1396(3)
C40B C -0.0826(11) -0.0759(3) 1.0956(4)
H23B H -0.1459 -0.0503 1.0994
C41B C 0.1760(10) -0.2165(3) 1.0207(3)
C42B C 0.0004(11) -0.1344(3) 1.0343(4)
H24B H -0.0064 -0.1487 0.9968
C43B C 0.5844(15) -0.0052(4) 1.4357(5)
C44B C 0.0727(11) -0.1129(3) 0.7506(4)
H25B H 0.0176 -0.0924 0.7236
C45B C 0.0780(10) -0.1605(3) 0.8363(4)
H26B H 0.0287 -0.1727 0.8675
C46B C 0.6480(12) -0.1511(3) 0.6394(4)
H27B H 0.6747 -0.1683 0.6071
C47B C -0.0856(12) -0.0972(3) 1.0407(4)
H28B H -0.1493 -0.0853 1.0073
C48B C -0.1401(13) -0.2609(4) 1.0540(5)
H29B H -0.1987 -0.2774 1.0212
H30B H -0.1792 -0.2688 1.0910
H31B H -0.1517 -0.2284 1.0471
C49B C 0.2438(14) -0.3164(4) 0.8466(5)
H32B H 0.3113 -0.3251 0.8825
H33B H 0.1900 -0.3432 0.8291
H34B H 0.3059 -0.3031 0.8183
C50B C 0.0662(17) -0.3592(4) 0.9619(7)
H35B H 0.1555 -0.3563 0.9925
H36B H -0.0067 -0.3810 0.9747
H37B H 0.1007 -0.3696 0.9251
C51B C 0.0826(17) 0.0300(5) 1.1556(5)
C52B C -0.021(2) 0.0416(6) 1.1035(6)
H38B H -0.1282 0.0385 1.1117
H39B H -0.0028 0.0728 1.0922
H40B H -0.0042 0.0213 1.0711
S2 S 0.0262(3) 0.89014(10) 0.51310(11)
F4 F 0.2348(8) 0.9154(2) 0.5999(3)
O8 O -0.0834(10) 0.9066(3) 0.5507(3)
F5 F 0.1682(10) 0.8466(2) 0.6041(3)
O9 O 0.0819(11) 0.9233(3) 0.4759(3)
F6 F 0.3176(10) 0.8658(3) 0.5420(3)
O10 O -0.0067(12) 0.8482(3) 0.4860(4)
C53 C 0.1975(15) 0.8783(4) 0.5687(5)
N5 N 0.0930(14) 0.2177(4) 0.7890(5)
C54 C 0.2912(15) 0.1722(4) 0.8611(5)
H41 H 0.2357 0.1580 0.8908
H42 H 0.3700 0.1927 0.8807
H43 H 0.3408 0.1489 0.8397
C55 C 0.1805(15) 0.1983(4) 0.8189(5)
C56 C 0.596(3) 0.0473(8) 0.9057(10)
H44 H 0.6714 0.0514 0.8780
H45 H 0.5629 0.0769 0.9186
H46 H 0.5061 0.0308 0.8860
N6 N 0.700(3) 0.0004(8) 0.9948(11)
C57 C 0.664(4) 0.0224(10) 0.9553(12)
loop_
_geom_bond_atom_site_label_1
_geom_bond_atom_site_label_2
_geom_bond_site_symmetry_1
_geom_bond_site_symmetry_2
Hg1 O1 1_555 1_555
S1 O1 1_555 1_555
N1 C4 1_555 1_555
F1 C30 1_555 1_555
O2 Hg1 1_555 1_555
O3 C5 1_555 1_555
O4 S1 1_555 1_555
F2 C30 1_555 1_555
O5 C35 1_555 1_555
O6 C26 1_555 1_555
F3 C30 1_555 1_555
N2 Hg1 1_555 1_555
O7 S1 1_555 1_555
C1 H1 1_555 1_555
C2 N2 1_555 1_555
H2 C2 1_555 1_555
C3 C6 1_555 1_555
C4 H3 1_555 1_555
C5 C10 1_555 1_555
C6 N2 1_555 1_555
H4 C6 1_555 1_555
C7 N1 1_555 1_555
H5 C7 1_555 1_555
C8 C1 1_555 1_555
H6 C8 1_555 1_555
N3 Hg1 1_555 1_555
C9 C15 1_555 1_555
C10 C25 1_555 1_555
C11 C4 1_555 1_555
C12 C11 1_555 1_555
C13 C15 1_555 1_555
C14 C12 1_555 1_555
C15 C21 1_555 1_555
C16 C12 1_555 1_555
C17 C16 1_555 1_555
C18 H7 1_555 1_555
C19 C3 1_555 1_555
C20 C13 1_555 1_555
H8 C20 1_555 1_555
C21 C18 1_555 1_555
H9 C21 1_555 1_555
C22 C14 1_555 1_555
H10 C22 1_555 1_555
C23 C14 1_555 1_555
C24 H11 1_555 1_555
C25 C17 1_555 1_555
C26 C5 1_555 1_555
C27 C18 1_555 1_555
H12 C27 1_555 1_555
C28 C23 1_555 1_555
H13 C28 1_555 1_555
C29 C9 1_555 1_555
C30 S1 1_555 1_555
C31 H14 1_555 1_555
C32 H15 1_555 1_555
H16 C32 1_555 1_555
H17 C32 1_555 1_555
C33 C16 1_555 1_555
H18 C33 1_555 1_555
C34 C28 1_555 1_555
H19 C34 1_555 1_555
C35 C26 1_555 1_555
C36 C22 1_555 1_555
H20 C36 1_555 1_555
C37 C10 1_555 1_555
H21 C37 1_555 1_555
N4 Hg1 1_555 1_555
C38 C11 1_555 1_555
H22 C38 1_555 1_555
C39 C19 1_555 1_555
C40 C31 1_555 1_555
H23 C40 1_555 1_555
C41 C9 1_555 1_555
C42 C29 1_555 1_555
H24 C42 1_555 1_555
C43 N3 1_555 1_555
C44 C24 1_555 1_555
H25 C44 1_555 1_555
C45 C17 1_555 1_555
H26 C45 1_555 1_555
C46 C7 1_555 1_555
H27 C46 1_555 1_555
C47 C40 1_555 1_555
H28 C47 1_555 1_555
C48 O5 1_555 1_555
H29 C48 1_555 1_555
H30 C48 1_555 1_555
H31 C48 1_555 1_555
C49 O3 1_555 1_555
H32 C49 1_555 1_555
H33 C49 1_555 1_555
H34 C49 1_555 1_555
C50 O6 1_555 1_555
H35 C50 1_555 1_555
H36 C50 1_555 1_555
H37 C50 1_555 1_555
C51 N4 1_555 1_555
C52 C51 1_555 1_555
H38 C52 1_555 1_555
H39 C52 1_555 1_555
H40 C52 1_555 1_555
S2 O8 1_555 1_555
F4 C53 1_555 1_555
F5 C53 1_555 1_555
O9 S2 1_555 1_555
F6 C53 1_555 1_555
O10 S2 1_555 1_555
C53 S2 1_555 1_555
N5 C55 1_555 1_555
C54 H41 1_555 1_555
H42 C54 1_555 1_555
H43 C54 1_555 1_555
C55 C54 1_555 1_555
C56 H44 1_555 1_555
H45 C56 1_555 1_555
H46 C56 1_555 1_555
N6 C57 1_555 1_555
C57 C56 1_555 1_555
Hg1B N1 1_555 1_555
S1B O1B 1_555 1_555
N1B Hg1 1_555 1_555
F1B C30B 1_555 1_555
O1B Hg1B 1_555 1_555
O2B Hg1B 1_555 1_555
O3B C5B 1_555 1_555
O4B S1B 1_555 1_555
F2B C30B 1_555 1_555
O5B C35B 1_555 1_555
O6B C26B 1_555 1_555
F3B C30B 1_555 1_555
N2B Hg1B 1_555 1_555
O7B S1B 1_555 1_555
C1B H1B 1_555 1_555
C2B N2B 1_555 1_555
H2B C2B 1_555 1_555
C3B C6B 1_555 1_555
C4B N1B 1_555 1_555
H3B C4B 1_555 1_555
C5B C10B 1_555 1_555
C6B N2B 1_555 1_555
H4B C6B 1_555 1_555
C7B N1B 1_555 1_555
H5B C7B 1_555 1_555
C8B C1B 1_555 1_555
H6B C8B 1_555 1_555
N3B Hg1B 1_555 1_555
C9B C15B 1_555 1_555
C10B C25B 1_555 1_555
C11B C4B 1_555 1_555
C12B C11B 1_555 1_555
C13B C15B 1_555 1_555
C14B C12B 1_555 1_555
C15B C21B 1_555 1_555
C16B C12B 1_555 1_555
C17B C16B 1_555 1_555
C18B H7B 1_555 1_555
C19B C3B 1_555 1_555
C20B C13B 1_555 1_555
H8B C20B 1_555 1_555
C21B C18B 1_555 1_555
H9B C21B 1_555 1_555
C22B C14B 1_555 1_555
H10B C22B 1_555 1_555
C23B C14B 1_555 1_555
C24B H11B 1_555 1_555
C25B C17B 1_555 1_555
C26B C5B 1_555 1_555
C27B C18B 1_555 1_555
H12B C27B 1_555 1_555
C28B C23B 1_555 1_555
H13B C28B 1_555 1_555
C29B C9B 1_555 1_555
C30B S1B 1_555 1_555
C31B H14B 1_555 1_555
C32B H15B 1_555 1_555
H16B C32B 1_555 1_555
H17B C32B 1_555 1_555
C33B C16B 1_555 1_555
H18B C33B 1_555 1_555
C34B C28B 1_555 1_555
H19B C34B 1_555 1_555
C35B C26B 1_555 1_555
C36B C22B 1_555 1_555
H20B C36B 1_555 1_555
C37B C10B 1_555 1_555
H21B C37B 1_555 1_555
N4B Hg1B 1_555 1_555
C38B C11B 1_555 1_555
H22B C38B 1_555 1_555
C39B C19B 1_555 1_555
C40B C31B 1_555 1_555
H23B C40B 1_555 1_555
C41B C9B 1_555 1_555
C42B C29B 1_555 1_555
H24B C42B 1_555 1_555
C43B N3B 1_555 1_555
C44B C24B 1_555 1_555
H25B C44B 1_555 1_555
C45B C17B 1_555 1_555
H26B C45B 1_555 1_555
C46B C7B 1_555 1_555
H27B C46B 1_555 1_555
C47B C40B 1_555 1_555
H28B C47B 1_555 1_555
C48B O5B 1_555 1_555
H29B C48B 1_555 1_555
H30B C48B 1_555 1_555
H31B C48B 1_555 1_555
C49B O3B 1_555 1_555
H32B C49B 1_555 1_555
H33B C49B 1_555 1_555
H34B C49B 1_555 1_555
C50B O6B 1_555 1_555
H35B C50B 1_555 1_555
H36B C50B 1_555 1_555
H37B C50B 1_555 1_555
C51B N4B 1_555 1_555
C52B C51B 1_555 1_555
H38B C52B 1_555 1_555
H39B C52B 1_555 1_555
H40B C52B 1_555 1_555
C1 C2 1_555 1_555
C3 C8 1_555 1_555
C13 C19 1_555 1_555
C20 C27 1_555 1_555
C23 C25 1_555 1_555
C24 C45 1_555 1_555
C29 C39 1_555 1_555
C31 C39 1_555 1_555
C32 C43 1_555 1_555
C33 C44 1_555 1_555
C34 C36 1_555 1_555
C35 C41 1_555 1_555
C37 C41 1_555 1_555
C38 C46 1_555 1_555
C42 C47 1_555 1_555
C1B C2B 1_555 1_555
C3B C8B 1_555 1_555
C13B C19B 1_555 1_555
C20B C27B 1_555 1_555
C23B C25B 1_555 1_555
C24B C45B 1_555 1_555
C29B C39B 1_555 1_555
C31B C39B 1_555 1_555
C32B C43B 1_555 1_555
C33B C44B 1_555 1_555
C34B C36B 1_555 1_555
C35B C41B 1_555 1_555
C37B C41B 1_555 1_555
C38B C46B 1_555 1_555
C42B C47B 1_555 1_555

#END
