
#######################################################################
#
#                 Cambridge Crystallographic Data Centre
#                                CCDC 
#
#######################################################################
#
# If this CIF has been generated from an entry in the Cambridge 
# Structural Database, then it will include bibliographic, chemical, 
# crystal, experimental, refinement or atomic coordinate data resulting 
# from the CCDC's data processing and validation procedures.
#
#######################################################################

data_SATWUG
_chemical_formula_moiety         'C86 H136 O10 P8 Pt4,2(C1 H1 Cl3)'
_chemical_name_systematic        
"bis((\m~2~-Anthracene-1,8-diyl)-(\m~2~-1,2-croconato-O,O')-bis(bis(triethylphosphine)-platinum(ii))) chloroform solvate"
_symmetry_cell_setting           monoclinic
_symmetry_space_group_name_H-M   'C 2/c'
_symmetry_Int_Tables_number      15
_space_group_name_Hall           '-C 2yn'
loop_
_symmetry_equiv_pos_site_id
_symmetry_equiv_pos_as_xyz
1 x,y,z
2 1/2+x,1/2+y,z
3 -x,y,1/2-z
4 1/2-x,1/2+y,1/2-z
5 -x,-y,-z
6 1/2-x,1/2-y,-z
7 x,-y,1/2+z
8 1/2+x,1/2-y,1/2+z
_cell_length_a                   27.4052(5)
_cell_length_b                   15.0715(3)
_cell_length_c                   23.8497(3)
_cell_angle_alpha                90
_cell_angle_beta                 99.2702(10)
_cell_angle_gamma                90
_cell_volume                     9722.16
_exptl_crystal_colour            yellow
_exptl_crystal_description       prism
_cell_formula_units_Z            4
_exptl_crystal_recrystallization_method acetone/chloroform/dichloromethane
loop_
_atom_site_label
_atom_site_type_symbol
_atom_site_fract_x
_atom_site_fract_y
_atom_site_fract_z
Pt1 Pt -0.147415(6) 0.298473(13) 0.145373(8)
Pt2 Pt 0.105859(7) 0.274886(15) 0.118120(8)
P1 P -0.16194(5) 0.44703(10) 0.12340(5)
P2 P -0.13294(6) 0.14924(10) 0.15722(7)
P3 P 0.10216(5) 0.42101(11) 0.14461(6)
P4 P 0.10814(6) 0.12648(12) 0.09413(9)
O1 O -0.07237(12) 0.3041(2) 0.12908(14)
O2 O -0.13510(13) 0.3149(3) 0.01562(16)
O3 O -0.07065(16) 0.2866(4) -0.07040(17)
O4 O 0.03065(16) 0.2637(4) -0.0104(2)
O5 O 0.02754(13) 0.2751(3) 0.11433(16)
C1 C -0.05873(18) 0.2968(4) 0.0807(2)
C2 C -0.09028(19) 0.3011(4) 0.0249(2)
C3 C -0.0576(2) 0.2877(5) -0.0190(2)
C4 C -0.0060(2) 0.2761(5) 0.0119(2)
C5 C -0.00843(19) 0.2831(4) 0.0722(2)
C6 C 0.17984(18) 0.2780(3) 0.1261(2)
C7 C 0.20044(19) 0.2855(4) 0.0774(2)
H1 H 0.1789 0.2921 0.0423
C8 C 0.2522(2) 0.2839(4) 0.0769(2)
H2 H 0.2645 0.2909 0.0421
C9 C 0.28400(19) 0.2725(4) 0.1258(2)
H3 H 0.3185 0.2683 0.1250
C10 C 0.26648(18) 0.2665(3) 0.1788(2)
C11 C 0.29910(18) 0.2573(3) 0.2290(2)
H4 H 0.3333 0.2499 0.2274
C12 C 0.28377(18) 0.2584(3) 0.2820(2)
C13 C 0.31843(19) 0.2477(4) 0.3332(2)
H5 H 0.3523 0.2372 0.3313
C14 C 0.30337(18) 0.2524(4) 0.3842(2)
H6 H 0.3265 0.2439 0.4179
C15 C 0.25285(19) 0.2700(4) 0.3877(2)
H7 H 0.2434 0.2745 0.4242
C16 C -0.21713(18) 0.2809(3) 0.1593(2)
C17 C 0.23210(17) 0.2718(3) 0.2850(2)
C18 C 0.19906(17) 0.2757(3) 0.2334(2)
H8 H 0.1647 0.2807 0.2349
C19 C 0.21389(17) 0.2728(3) 0.1800(2)
C20 C -0.1802(2) 0.5242(4) 0.1755(2)
H9 H -0.1555 0.5205 0.2106
H10 H -0.1789 0.5852 0.1605
C21 C -0.2312(2) 0.5092(5) 0.1910(3)
H11 H -0.2375 0.5536 0.2190
H12 H -0.2328 0.4497 0.2072
H13 H -0.2562 0.5146 0.1569
C22 C -0.2099(2) 0.4584(4) 0.0610(2)
H14 H -0.2010 0.4191 0.0309
H15 H -0.2412 0.4359 0.0712
C23 C -0.2197(2) 0.5500(4) 0.0357(3)
H16 H -0.2460 0.5466 0.0026
H17 H -0.1895 0.5729 0.0238
H18 H -0.2299 0.5898 0.0642
C24 C -0.1075(2) 0.5029(5) 0.1037(3)
H19 H -0.0963 0.4664 0.0737
H20 H -0.1192 0.5599 0.0857
C25 C -0.0649(4) 0.5224(9) 0.1444(5)
H23 H -0.0402 0.5521 0.1255
H24 H -0.0510 0.4671 0.1618
H25 H -0.0742 0.5613 0.1739
C26 C -0.1281(2) 0.0970(5) 0.0890(3)
H26 H -0.1002 0.1237 0.0734
H27 H -0.1211 0.0330 0.0951
C27 C -0.1755(3) 0.1082(6) 0.0462(3)
H28 H -0.1716 0.0794 0.0103
H29 H -0.1822 0.1715 0.0395
H30 H -0.2032 0.0809 0.0612
C28 C -0.0737(2) 0.1294(4) 0.2021(3)
H31 H -0.0735 0.0674 0.2157
H32 H -0.0476 0.1343 0.1779
C29 C -0.0589(4) 0.1902(7) 0.2546(5)
H35 H -0.0263 0.1726 0.2746
H36 H -0.0833 0.1843 0.2802
H37 H -0.0578 0.2520 0.2421
C30 C -0.1790(3) 0.0826(4) 0.1862(4)
H38 H -0.1702 0.0822 0.2281
H39 H -0.2115 0.1122 0.1766
C31 C -0.1843(5) -0.0144(9) 0.1653(7)
H42 H -0.2099 -0.0441 0.1829
H43 H -0.1528 -0.0453 0.1759
H44 H -0.1938 -0.0152 0.1239
C32 C 0.0586(3) 0.4842(5) 0.0936(3)
H45 H 0.0247 0.4632 0.0951
H46 H 0.0604 0.5476 0.1047
C33 C 0.0689(4) 0.4759(6) 0.0326(3)
H47 H 0.0444 0.5106 0.0072
H48 H 0.0666 0.4134 0.0211
H49 H 0.1021 0.4982 0.0306
C34 C 0.1586(2) 0.4877(4) 0.1589(3)
H50 H 0.1509 0.5425 0.1787
H51 H 0.1833 0.4541 0.1856
C35 C 0.1829(3) 0.5149(5) 0.1084(4)
H52 H 0.2126 0.5500 0.1218
H53 H 0.1597 0.5505 0.0820
H54 H 0.1921 0.4617 0.0889
C36 C 0.0778(2) 0.4308(4) 0.2112(3)
H55 H 0.1063 0.4240 0.2422
H56 H 0.0660 0.4927 0.2132
C37 C 0.0357(5) 0.3696(11) 0.2266(6)
H59 H 0.0286 0.3856 0.2643
H60 H 0.0464 0.3075 0.2269
H61 H 0.0058 0.3773 0.1984
C38 C 0.1451(3) 0.0995(6) 0.0384(5)
H62 H 0.1791 0.1224 0.0501
H63 H 0.1473 0.0342 0.0353
C39 C 0.1248(3) 0.1368(8) -0.0196(4)
H64 H 0.1464 0.1196 -0.0468
H65 H 0.1234 0.2017 -0.0174
H66 H 0.0915 0.1133 -0.0322
C40 C 0.1364(3) 0.0625(5) 0.1547(5)
H67 H 0.1706 0.0857 0.1623
H68 H 0.1203 0.0857 0.1860
C41 C 0.1431(6) -0.0382(10) 0.1691(8)
H71 H 0.1609 -0.0450 0.2080
H72 H 0.1621 -0.0663 0.1425
H73 H 0.1106 -0.0666 0.1660
C42 C 0.0489(2) 0.0728(6) 0.0697(4)
H74 H 0.0330 0.1056 0.0357
H75 H 0.0563 0.0125 0.0568
C43 C 0.0153(4) 0.0638(8) 0.1034(6)
H78 H -0.0142 0.0349 0.0825
H79 H 0.0063 0.1224 0.1163
H80 H 0.0288 0.0274 0.1363
Pt1B Pt 0.147415(6) 0.298473(13) 0.354627(8)
Pt2B Pt -0.105859(7) 0.274886(15) 0.381880(8)
P1B P 0.16194(5) 0.44703(10) 0.37660(5)
P2B P 0.13294(6) 0.14924(10) 0.34278(7)
P3B P -0.10216(5) 0.42101(11) 0.35539(6)
P4B P -0.10814(6) 0.12648(12) 0.40587(9)
O1B O 0.07237(12) 0.3041(2) 0.37092(14)
O2B O 0.13510(13) 0.3149(3) 0.48438(16)
O3B O 0.07065(16) 0.2866(4) 0.57040(17)
O4B O -0.03065(16) 0.2637(4) 0.5104(2)
O5B O -0.02754(13) 0.2751(3) 0.38567(16)
C1B C 0.05873(18) 0.2968(4) 0.4193(2)
C2B C 0.09028(19) 0.3011(4) 0.4751(2)
C3B C 0.0576(2) 0.2877(5) 0.5190(2)
C4B C 0.0060(2) 0.2761(5) 0.4881(2)
C5B C 0.00843(19) 0.2831(4) 0.4278(2)
C6B C -0.17984(18) 0.2780(3) 0.3739(2)
C7B C -0.20044(19) 0.2855(4) 0.4226(2)
H1B H -0.1789 0.2921 0.4577
C8B C -0.2522(2) 0.2839(4) 0.4231(2)
H2B H -0.2645 0.2909 0.4579
C9B C -0.28400(19) 0.2725(4) 0.3742(2)
H3B H -0.3185 0.2683 0.3750
C10B C -0.26648(18) 0.2665(3) 0.3212(2)
C11B C -0.29910(18) 0.2573(3) 0.2710(2)
H4B H -0.3333 0.2499 0.2726
C12B C -0.28377(18) 0.2584(3) 0.2180(2)
C13B C -0.31843(19) 0.2477(4) 0.1668(2)
H5B H -0.3523 0.2372 0.1687
C14B C -0.30337(18) 0.2524(4) 0.1158(2)
H6B H -0.3265 0.2439 0.0821
C15B C -0.25285(19) 0.2700(4) 0.1123(2)
H7B H -0.2434 0.2745 0.0758
C16B C 0.21713(18) 0.2809(3) 0.3407(2)
C17B C -0.23210(17) 0.2718(3) 0.2150(2)
C18B C -0.19906(17) 0.2757(3) 0.2666(2)
H8B H -0.1647 0.2807 0.2651
C19B C -0.21389(17) 0.2728(3) 0.3200(2)
C20B C 0.1802(2) 0.5242(4) 0.3245(2)
H9B H 0.1555 0.5205 0.2894
H10B H 0.1789 0.5852 0.3395
C21B C 0.2312(2) 0.5092(5) 0.3090(3)
H11B H 0.2375 0.5536 0.2810
H12B H 0.2328 0.4497 0.2928
H13B H 0.2562 0.5146 0.3431
C22B C 0.2099(2) 0.4584(4) 0.4390(2)
H14B H 0.2010 0.4191 0.4691
H15B H 0.2412 0.4359 0.4288
C23B C 0.2197(2) 0.5500(4) 0.4643(3)
H16B H 0.2460 0.5466 0.4974
H17B H 0.1895 0.5729 0.4762
H18B H 0.2299 0.5898 0.4358
C24B C 0.1075(2) 0.5029(5) 0.3963(3)
H19B H 0.0963 0.4664 0.4263
H20B H 0.1192 0.5599 0.4143
C25B C 0.0649(4) 0.5224(9) 0.3556(5)
H23B H 0.0402 0.5521 0.3745
H24B H 0.0510 0.4671 0.3382
H25B H 0.0742 0.5613 0.3261
C26B C 0.1281(2) 0.0970(5) 0.4110(3)
H26B H 0.1002 0.1237 0.4266
H27B H 0.1211 0.0330 0.4049
C27B C 0.1755(3) 0.1082(6) 0.4538(3)
H28B H 0.1716 0.0794 0.4897
H29B H 0.1822 0.1715 0.4605
H30B H 0.2032 0.0809 0.4388
C28B C 0.0737(2) 0.1294(4) 0.2979(3)
H31B H 0.0735 0.0674 0.2843
H32B H 0.0476 0.1343 0.3221
C29B C 0.0589(4) 0.1902(7) 0.2454(5)
H35B H 0.0263 0.1726 0.2254
H36B H 0.0833 0.1843 0.2198
H37B H 0.0578 0.2520 0.2579
C30B C 0.1790(3) 0.0826(4) 0.3138(4)
H38B H 0.1702 0.0822 0.2719
H39B H 0.2115 0.1122 0.3234
C31B C 0.1843(5) -0.0144(9) 0.3347(7)
H42B H 0.2099 -0.0441 0.3171
H43B H 0.1528 -0.0453 0.3241
H44B H 0.1938 -0.0152 0.3761
C32B C -0.0586(3) 0.4842(5) 0.4064(3)
H45B H -0.0247 0.4632 0.4049
H46B H -0.0604 0.5476 0.3953
C33B C -0.0689(4) 0.4759(6) 0.4674(3)
H47B H -0.0444 0.5106 0.4928
H48B H -0.0666 0.4134 0.4789
H49B H -0.1021 0.4982 0.4694
C34B C -0.1586(2) 0.4877(4) 0.3411(3)
H50B H -0.1509 0.5425 0.3213
H51B H -0.1833 0.4541 0.3144
C35B C -0.1829(3) 0.5149(5) 0.3916(4)
H52B H -0.2126 0.5500 0.3782
H53B H -0.1597 0.5505 0.4180
H54B H -0.1921 0.4617 0.4111
C36B C -0.0778(2) 0.4308(4) 0.2888(3)
H55B H -0.1063 0.4240 0.2578
H56B H -0.0660 0.4927 0.2868
C37B C -0.0357(5) 0.3696(11) 0.2734(6)
H59B H -0.0286 0.3856 0.2357
H60B H -0.0464 0.3075 0.2731
H61B H -0.0058 0.3773 0.3016
C38B C -0.1451(3) 0.0995(6) 0.4616(5)
H62B H -0.1791 0.1224 0.4499
H63B H -0.1473 0.0342 0.4647
C39B C -0.1248(3) 0.1368(8) 0.5196(4)
H64B H -0.1464 0.1196 0.5468
H65B H -0.1234 0.2017 0.5174
H66B H -0.0915 0.1133 0.5322
C40B C -0.1364(3) 0.0625(5) 0.3453(5)
H67B H -0.1706 0.0857 0.3377
H68B H -0.1203 0.0857 0.3140
C41B C -0.1431(6) -0.0382(10) 0.3309(8)
H71B H -0.1609 -0.0450 0.2920
H72B H -0.1621 -0.0663 0.3575
H73B H -0.1106 -0.0666 0.3340
C42B C -0.0489(2) 0.0728(6) 0.4303(4)
H74B H -0.0330 0.1056 0.4643
H75B H -0.0563 0.0125 0.4432
C43B C -0.0153(4) 0.0638(8) 0.3966(6)
H78B H 0.0142 0.0349 0.4175
H79B H -0.0063 0.1224 0.3837
H80B H -0.0288 0.0274 0.3637
C50 C 0.0004(8) 0.7554(13) 0.1579(9)
H99 H 0.0036 0.7455 0.1172
Cl1 Cl 0.02097(17) 0.6642(3) 0.19963(19)
Cl2 Cl 0.0492(2) 0.8423(4) 0.1942(3)
Cl3 Cl -0.0521(2) 0.8032(4) 0.1639(2)
loop_
_geom_bond_atom_site_label_1
_geom_bond_atom_site_label_2
_geom_bond_site_symmetry_1
_geom_bond_site_symmetry_2
Pt1 P1 1_555 1_555
Pt2 P3 1_555 1_555
P1 C20 1_555 1_555
P2 Pt1 1_555 1_555
P3 C32 1_555 1_555
P4 Pt2 1_555 1_555
O1 Pt1 1_555 1_555
O2 C2 1_555 1_555
O3 C3 1_555 1_555
O4 C4 1_555 1_555
O5 Pt2 1_555 1_555
C1 O1 1_555 1_555
C2 C1 1_555 1_555
C3 C2 1_555 1_555
C4 C3 1_555 1_555
C5 O5 1_555 1_555
C6 Pt2 1_555 1_555
C7 C6 1_555 1_555
H1 C7 1_555 1_555
C8 C7 1_555 1_555
H2 C8 1_555 1_555
C9 C8 1_555 1_555
H3 C9 1_555 1_555
C10 C9 1_555 1_555
C11 C10 1_555 1_555
H4 C11 1_555 1_555
C12 C11 1_555 1_555
C13 C12 1_555 1_555
H5 C13 1_555 1_555
C14 C13 1_555 1_555
H6 C14 1_555 1_555
C15 C14 1_555 1_555
H7 C15 1_555 1_555
C16 Pt1 1_555 1_555
C17 C12 1_555 1_555
C18 C17 1_555 1_555
H8 C18 1_555 1_555
C19 C6 1_555 1_555
C20 H9 1_555 1_555
H10 C20 1_555 1_555
C21 C20 1_555 1_555
H11 C21 1_555 1_555
H12 C21 1_555 1_555
H13 C21 1_555 1_555
C22 P1 1_555 1_555
H14 C22 1_555 1_555
H15 C22 1_555 1_555
C23 C22 1_555 1_555
H16 C23 1_555 1_555
H17 C23 1_555 1_555
H18 C23 1_555 1_555
C24 P1 1_555 1_555
H19 C24 1_555 1_555
H20 C24 1_555 1_555
C25 C24 1_555 1_555
H23 C25 1_555 1_555
H24 C25 1_555 1_555
H25 C25 1_555 1_555
C26 P2 1_555 1_555
H26 C26 1_555 1_555
H27 C26 1_555 1_555
C27 C26 1_555 1_555
H28 C27 1_555 1_555
H29 C27 1_555 1_555
H30 C27 1_555 1_555
C28 P2 1_555 1_555
H31 C28 1_555 1_555
H32 C28 1_555 1_555
C29 C28 1_555 1_555
H35 C29 1_555 1_555
H36 C29 1_555 1_555
H37 C29 1_555 1_555
C30 P2 1_555 1_555
H38 C30 1_555 1_555
H39 C30 1_555 1_555
C31 C30 1_555 1_555
H42 C31 1_555 1_555
H43 C31 1_555 1_555
H44 C31 1_555 1_555
C32 H45 1_555 1_555
H46 C32 1_555 1_555
C33 C32 1_555 1_555
H47 C33 1_555 1_555
H48 C33 1_555 1_555
H49 C33 1_555 1_555
C34 P3 1_555 1_555
H50 C34 1_555 1_555
H51 C34 1_555 1_555
C35 C34 1_555 1_555
H52 C35 1_555 1_555
H53 C35 1_555 1_555
H54 C35 1_555 1_555
C36 P3 1_555 1_555
H55 C36 1_555 1_555
H56 C36 1_555 1_555
C37 C36 1_555 1_555
H59 C37 1_555 1_555
H60 C37 1_555 1_555
H61 C37 1_555 1_555
C38 P4 1_555 1_555
H62 C38 1_555 1_555
H63 C38 1_555 1_555
C39 C38 1_555 1_555
H64 C39 1_555 1_555
H65 C39 1_555 1_555
H66 C39 1_555 1_555
C40 P4 1_555 1_555
H67 C40 1_555 1_555
H68 C40 1_555 1_555
C41 C40 1_555 1_555
H71 C41 1_555 1_555
H72 C41 1_555 1_555
H73 C41 1_555 1_555
C42 P4 1_555 1_555
H74 C42 1_555 1_555
H75 C42 1_555 1_555
C43 C42 1_555 1_555
H78 C43 1_555 1_555
H79 C43 1_555 1_555
H80 C43 1_555 1_555
C50 H99 1_555 1_555
Cl1 C50 1_555 1_555
Cl2 C50 1_555 1_555
Cl3 C50 1_555 1_555
Pt1B P1B 1_555 1_555
Pt2B P3B 1_555 1_555
P1B C20B 1_555 1_555
P2B Pt1B 1_555 1_555
P3B C32B 1_555 1_555
P4B Pt2B 1_555 1_555
O1B Pt1B 1_555 1_555
O2B C2B 1_555 1_555
O3B C3B 1_555 1_555
O4B C4B 1_555 1_555
O5B Pt2B 1_555 1_555
C1B O1B 1_555 1_555
C2B C1B 1_555 1_555
C3B C2B 1_555 1_555
C4B C3B 1_555 1_555
C5B O5B 1_555 1_555
C6B Pt2B 1_555 1_555
C7B C6B 1_555 1_555
H1B C7B 1_555 1_555
C8B C7B 1_555 1_555
H2B C8B 1_555 1_555
C9B C8B 1_555 1_555
H3B C9B 1_555 1_555
C10B C9B 1_555 1_555
C11B C10B 1_555 1_555
H4B C11B 1_555 1_555
C12B C11B 1_555 1_555
C13B C12B 1_555 1_555
H5B C13B 1_555 1_555
C14B C13B 1_555 1_555
H6B C14B 1_555 1_555
C15B C16 1_555 1_555
H7B C15B 1_555 1_555
C16B C15 1_555 1_555
C17B C16 1_555 1_555
C18B C17B 1_555 1_555
H8B C18B 1_555 1_555
C19B C6B 1_555 1_555
C20B H9B 1_555 1_555
H10B C20B 1_555 1_555
C21B C20B 1_555 1_555
H11B C21B 1_555 1_555
H12B C21B 1_555 1_555
H13B C21B 1_555 1_555
C22B P1B 1_555 1_555
H14B C22B 1_555 1_555
H15B C22B 1_555 1_555
C23B C22B 1_555 1_555
H16B C23B 1_555 1_555
H17B C23B 1_555 1_555
H18B C23B 1_555 1_555
C24B P1B 1_555 1_555
H19B C24B 1_555 1_555
H20B C24B 1_555 1_555
C25B C24B 1_555 1_555
H23B C25B 1_555 1_555
H24B C25B 1_555 1_555
H25B C25B 1_555 1_555
C26B P2B 1_555 1_555
H26B C26B 1_555 1_555
H27B C26B 1_555 1_555
C27B C26B 1_555 1_555
H28B C27B 1_555 1_555
H29B C27B 1_555 1_555
H30B C27B 1_555 1_555
C28B P2B 1_555 1_555
H31B C28B 1_555 1_555
H32B C28B 1_555 1_555
C29B C28B 1_555 1_555
H35B C29B 1_555 1_555
H36B C29B 1_555 1_555
H37B C29B 1_555 1_555
C30B P2B 1_555 1_555
H38B C30B 1_555 1_555
H39B C30B 1_555 1_555
C31B C30B 1_555 1_555
H42B C31B 1_555 1_555
H43B C31B 1_555 1_555
H44B C31B 1_555 1_555
C32B H45B 1_555 1_555
H46B C32B 1_555 1_555
C33B C32B 1_555 1_555
H47B C33B 1_555 1_555
H48B C33B 1_555 1_555
H49B C33B 1_555 1_555
C34B P3B 1_555 1_555
H50B C34B 1_555 1_555
H51B C34B 1_555 1_555
C35B C34B 1_555 1_555
H52B C35B 1_555 1_555
H53B C35B 1_555 1_555
H54B C35B 1_555 1_555
C36B P3B 1_555 1_555
H55B C36B 1_555 1_555
H56B C36B 1_555 1_555
C37B C36B 1_555 1_555
H59B C37B 1_555 1_555
H60B C37B 1_555 1_555
H61B C37B 1_555 1_555
C38B P4B 1_555 1_555
H62B C38B 1_555 1_555
H63B C38B 1_555 1_555
C39B C38B 1_555 1_555
H64B C39B 1_555 1_555
H65B C39B 1_555 1_555
H66B C39B 1_555 1_555
C40B P4B 1_555 1_555
H67B C40B 1_555 1_555
H68B C40B 1_555 1_555
C41B C40B 1_555 1_555
H71B C41B 1_555 1_555
H72B C41B 1_555 1_555
H73B C41B 1_555 1_555
C42B P4B 1_555 1_555
H74B C42B 1_555 1_555
H75B C42B 1_555 1_555
C43B C42B 1_555 1_555
H78B C43B 1_555 1_555
H79B C43B 1_555 1_555
H80B C43B 1_555 1_555
C1 C5 1_555 1_555
C4 C5 1_555 1_555
C10 C19 1_555 1_555
C17 C16B 1_555 1_555
C18 C19 1_555 1_555
Pt1B C16B 1_555 1_555
C1B C5B 1_555 1_555
C4B C5B 1_555 1_555
C10B C19B 1_555 1_555
C12B C17B 1_555 1_555
C14B C15B 1_555 1_555
C18B C19B 1_555 1_555

#END
