
#######################################################################
#
#                 Cambridge Crystallographic Data Centre
#                                CCDC 
#
#######################################################################
#
# If this CIF has been generated from an entry in the Cambridge 
# Structural Database, then it will include bibliographic, chemical, 
# crystal, experimental, refinement or atomic coordinate data resulting 
# from the CCDC's data processing and validation procedures.
#
#######################################################################

data_SELPOR
_chemical_formula_moiety         'C30 H26 Br2 Cd1 N6 O8'
_chemical_name_systematic        
dibromo-bis{4-methoxy-N'-[(2-nitrophenyl)methylidene]benzohydrazide}-cadmium(ii)
_symmetry_cell_setting           monoclinic
_symmetry_space_group_name_H-M   'I 2/a'
_symmetry_Int_Tables_number      15
_space_group_name_Hall           '-I 2ya'
loop_
_symmetry_equiv_pos_site_id
_symmetry_equiv_pos_as_xyz
1 x,y,z
2 1/2-x,y,-z
3 1/2+x,1/2+y,1/2+z
4 -x,1/2+y,1/2-z
5 -x,-y,-z
6 1/2+x,-y,z
7 1/2-x,1/2-y,1/2-z
8 x,1/2-y,1/2+z
_cell_length_a                   13.5835(6)
_cell_length_b                   17.6775(6)
_cell_length_c                   14.4204(7)
_cell_angle_alpha                90
_cell_angle_beta                 114.570(6)
_cell_angle_gamma                90
_cell_volume                     3149.13
_exptl_crystal_colour            colorless
_exptl_crystal_description       irregular
_cell_formula_units_Z            4
loop_
_atom_site_label
_atom_site_type_symbol
_atom_site_fract_x
_atom_site_fract_y
_atom_site_fract_z
Cd1 Cd 0.7500 0.82967(2) 0.5000
Br1 Br 0.85478(3) 0.89563(2) 0.67918(3)
O1 O 0.5948(2) 0.83523(14) 0.5255(2)
O2 O 0.2072(2) 0.83430(16) 0.6588(3)
O3 O 0.7493(2) 0.51661(16) 0.6073(2)
O4 O 0.8737(3) 0.43831(17) 0.6145(3)
N1 N 0.7304(2) 0.71777(16) 0.6052(2)
N2 N 0.6439(2) 0.73276(16) 0.6300(2)
H1 H 0.6324 0.7047 0.6749
N3 N 0.8408(3) 0.50256(17) 0.6141(2)
C1 C 0.5773(3) 0.79156(19) 0.5836(3)
C2 C 0.7868(3) 0.65977(18) 0.6496(3)
H2 H 0.7668 0.6296 0.6935
C3 C 0.4823(2) 0.80178(19) 0.6074(2)
C4 C 0.4249(3) 0.74080(19) 0.6222(3)
H3 H 0.4490 0.6905 0.6210
C5 C 0.3325(3) 0.7538(2) 0.6388(3)
H4 H 0.2930 0.7124 0.6483
C6 C 0.2981(3) 0.8275(2) 0.6416(3)
C7 C 0.3549(3) 0.88895(19) 0.6266(3)
H5 H 0.3312 0.9392 0.6287
C8 C 0.4455(3) 0.87557(19) 0.6088(3)
H6 H 0.4836 0.9170 0.5974
C9 C 0.1655(3) 0.9092(3) 0.6591(3)
H7 H 0.1516 0.9343 0.5943
H8 H 0.2187 0.9386 0.7153
H9 H 0.0979 0.9058 0.6680
C10 C 0.8835(3) 0.64022(19) 0.6317(2)
C11 C 0.9523(3) 0.69774(19) 0.6305(3)
H10 H 0.9360 0.7485 0.6407
C12 C 1.0447(3) 0.6828(2) 0.6146(3)
H11 H 1.0902 0.7231 0.6130
C13 C 1.0704(3) 0.6085(2) 0.6013(3)
H12 H 1.1330 0.5981 0.5896
C14 C 1.0049(3) 0.5500(2) 0.6049(3)
H13 H 1.0232 0.4991 0.5980
C15 C 0.9122(3) 0.56638(19) 0.6188(3)
Br1A Br 0.64522(3) 0.89563(2) 0.32082(3)
O1A O 0.9052(2) 0.83523(14) 0.4745(2)
O2A O 1.2928(2) 0.83430(16) 0.3412(3)
O3A O 0.7507(2) 0.51661(16) 0.3927(2)
O4A O 0.6263(3) 0.43831(17) 0.3855(3)
N1A N 0.7696(2) 0.71777(16) 0.3948(2)
N2A N 0.8561(2) 0.73276(16) 0.3700(2)
H1A H 0.8676 0.7047 0.3251
N3A N 0.6592(3) 0.50256(17) 0.3859(2)
C1A C 0.9227(3) 0.79156(19) 0.4164(3)
C2A C 0.7132(3) 0.65977(18) 0.3504(3)
H2A H 0.7332 0.6296 0.3065
C3A C 1.0177(2) 0.80178(19) 0.3926(2)
C4A C 1.0751(3) 0.74080(19) 0.3778(3)
H3A H 1.0510 0.6905 0.3790
C5A C 1.1675(3) 0.7538(2) 0.3612(3)
H4A H 1.2070 0.7124 0.3517
C6A C 1.2019(3) 0.8275(2) 0.3584(3)
C7A C 1.1451(3) 0.88895(19) 0.3734(3)
H5A H 1.1688 0.9392 0.3713
C8A C 1.0545(3) 0.87557(19) 0.3912(3)
H6A H 1.0164 0.9170 0.4026
C9A C 1.3345(3) 0.9092(3) 0.3409(3)
H7A H 1.3484 0.9343 0.4057
H8A H 1.2813 0.9386 0.2847
H9A H 1.4021 0.9058 0.3320
C10A C 0.6165(3) 0.64022(19) 0.3683(2)
C11A C 0.5477(3) 0.69774(19) 0.3695(3)
H10A H 0.5640 0.7485 0.3593
C12A C 0.4553(3) 0.6828(2) 0.3854(3)
H11A H 0.4098 0.7231 0.3870
C13A C 0.4296(3) 0.6085(2) 0.3987(3)
H12A H 0.3670 0.5981 0.4104
C14A C 0.4951(3) 0.5500(2) 0.3951(3)
H13A H 0.4768 0.4991 0.4020
C15A C 0.5878(3) 0.56638(19) 0.3812(3)
loop_
_geom_bond_atom_site_label_1
_geom_bond_atom_site_label_2
_geom_bond_site_symmetry_1
_geom_bond_site_symmetry_2
Cd1 Br1 1_555 1_555
O1 Cd1 1_555 1_555
O2 C6 1_555 1_555
O3 N3 1_555 1_555
O4 N3 1_555 1_555
N1 Cd1 1_555 1_555
N2 N1 1_555 1_555
H1 N2 1_555 1_555
N3 C15 1_555 1_555
C1 O1 1_555 1_555
C2 N1 1_555 1_555
H2 C2 1_555 1_555
C3 C1 1_555 1_555
C4 C3 1_555 1_555
H3 C4 1_555 1_555
C5 C4 1_555 1_555
H4 C5 1_555 1_555
C6 C5 1_555 1_555
C7 C6 1_555 1_555
H5 C7 1_555 1_555
C8 C3 1_555 1_555
H6 C8 1_555 1_555
C9 O2 1_555 1_555
H7 C9 1_555 1_555
H8 C9 1_555 1_555
H9 C9 1_555 1_555
C10 C2 1_555 1_555
C11 C10 1_555 1_555
H10 C11 1_555 1_555
C12 C11 1_555 1_555
H11 C12 1_555 1_555
C13 C12 1_555 1_555
H12 C13 1_555 1_555
C14 C13 1_555 1_555
H13 C14 1_555 1_555
C15 C10 1_555 1_555
Br1A Cd1 1_555 1_555
O1A Cd1 1_555 1_555
O2A C6A 1_555 1_555
O3A N3A 1_555 1_555
O4A N3A 1_555 1_555
N1A Cd1 1_555 1_555
N2A N1A 1_555 1_555
H1A N2A 1_555 1_555
N3A C15A 1_555 1_555
C1A O1A 1_555 1_555
C2A N1A 1_555 1_555
H2A C2A 1_555 1_555
C3A C1A 1_555 1_555
C4A C3A 1_555 1_555
H3A C4A 1_555 1_555
C5A C4A 1_555 1_555
H4A C5A 1_555 1_555
C6A C5A 1_555 1_555
C7A C6A 1_555 1_555
H5A C7A 1_555 1_555
C8A C3A 1_555 1_555
H6A C8A 1_555 1_555
C9A O2A 1_555 1_555
H7A C9A 1_555 1_555
H8A C9A 1_555 1_555
H9A C9A 1_555 1_555
C10A C2A 1_555 1_555
C11A C10A 1_555 1_555
H10A C11A 1_555 1_555
C12A C11A 1_555 1_555
H11A C12A 1_555 1_555
C13A C12A 1_555 1_555
H12A C13A 1_555 1_555
C14A C13A 1_555 1_555
H13A C14A 1_555 1_555
C15A C10A 1_555 1_555
N2 C1 1_555 1_555
C7 C8 1_555 1_555
C14 C15 1_555 1_555
N2A C1A 1_555 1_555
C7A C8A 1_555 1_555
C14A C15A 1_555 1_555

#END
