
#######################################################################
#
#                 Cambridge Crystallographic Data Centre
#                                CCDC 
#
#######################################################################
#
# If this CIF has been generated from an entry in the Cambridge 
# Structural Database, then it will include bibliographic, chemical, 
# crystal, experimental, refinement or atomic coordinate data resulting 
# from the CCDC's data processing and validation procedures.
#
#######################################################################

data_SERFEC
_chemical_formula_moiety         'C48 H42 Cu2 N10 4+,4(C1 F3 O3 S1 1-)'
_chemical_name_systematic        
"bis(\m~2~-N,N-bis((Pyridin-2-yl)methyl)-N'-((pyridin-2-yl)methylene)benzene-1,3-diamine)-di-copper(ii) tetrakis(trifluoromethanesulfonate)"
_symmetry_cell_setting           monoclinic
_symmetry_space_group_name_H-M   'C 2/c'
_symmetry_Int_Tables_number      15
_space_group_name_Hall           '-C 2yn'
loop_
_symmetry_equiv_pos_site_id
_symmetry_equiv_pos_as_xyz
1 x,y,z
2 -x,y,1/2-z
3 1/2+x,1/2+y,z
4 1/2-x,1/2+y,1/2-z
5 -x,-y,-z
6 x,-y,1/2+z
7 1/2-x,1/2-y,-z
8 1/2+x,1/2-y,1/2+z
_cell_length_a                   42.0617(8)
_cell_length_b                   10.7977(2)
_cell_length_c                   28.7341(5)
_cell_angle_alpha                90
_cell_angle_beta                 97.1390(10)
_cell_angle_gamma                90
_cell_volume                     12949
_exptl_crystal_colour            'light blue'
_exptl_crystal_description       block
_cell_formula_units_Z            8
loop_
_atom_site_label
_atom_site_type_symbol
_atom_site_fract_x
_atom_site_fract_y
_atom_site_fract_z
Cu1 Cu 0.390332(13) 0.32018(5) 0.178482(19)
Cu2 Cu 0.347067(13) 0.39051(5) 0.401887(19)
N1 N 0.42476(8) 0.3808(3) 0.22620(11)
N2 N 0.37073(8) 0.1763(3) 0.22372(11)
N3 N 0.36088(8) 0.5495(3) 0.43723(11)
N4 N 0.34428(8) 0.5354(3) 0.34370(11)
N5 N 0.39173(8) 0.3377(3) 0.39891(11)
N6 N 0.37264(8) 0.5016(3) 0.18337(11)
N7 N 0.35661(8) 0.3104(3) 0.12462(11)
C1 C 0.35370(10) 0.1874(3) 0.30198(14)
H1 H 0.3751 0.1740 0.3159
N8 N 0.41484(8) 0.1608(3) 0.16392(11)
C2 C 0.34646(10) 0.1900(4) 0.25376(14)
N9 N 0.33655(8) 0.2084(3) 0.38117(12)
C3 C 0.35769(10) 0.5169(4) 0.26371(14)
H2 H 0.3798 0.5152 0.2756
C4 C 0.36054(10) 0.6547(4) 0.41189(14)
C5 C 0.37183(10) 0.5552(4) 0.48316(14)
H3 H 0.3721 0.4817 0.5014
C6 C 0.44614(10) 0.3118(4) 0.25359(14)
H4 H 0.4449 0.2242 0.2509
C7 C 0.30225(10) 0.5306(4) 0.27721(15)
H5 H 0.2866 0.5390 0.2981
C8 C 0.33442(10) 0.5280(4) 0.29427(13)
C9 C 0.31089(11) 0.3205(5) 0.04758(16)
H6 H 0.2952 0.3240 0.0208
C10 C 0.35979(10) 0.5330(4) 0.13381(13)
H7 H 0.3774 0.5643 0.1171
H8 H 0.3435 0.5992 0.1337
C11 C 0.40159(9) 0.5789(4) 0.19985(13)
H9 H 0.3950 0.6506 0.2178
H10 H 0.4110 0.6109 0.1723
C12 C 0.34496(10) 0.4204(4) 0.10885(13)
C13 C 0.42647(9) 0.5048(4) 0.23027(13)
C14 C 0.38604(10) 0.0754(4) 0.22333(14)
H11 H 0.3821 0.0101 0.2440
C15 C 0.32932(10) 0.2048(4) 0.33013(14)
C16 C 0.35065(11) 0.6414(4) 0.36113(15)
H12 H 0.3491 0.7125 0.3415
C17 C 0.45002(9) 0.5613(4) 0.26086(14)
H13 H 0.4512 0.6490 0.2625
C18 C 0.34544(10) 0.2063(4) 0.10284(15)
H14 H 0.3533 0.1286 0.1147
C19 C 0.39574(11) 0.2158(4) 0.40005(14)
C20 C 0.34806(9) 0.5084(3) 0.21533(13)
C21 C 0.44746(11) -0.0595(4) 0.15366(17)
H15 H 0.4586 -0.1348 0.1499
C22 C 0.31557(10) 0.5090(4) 0.19873(14)
H16 H 0.3088 0.5011 0.1661
C23 C 0.29788(11) 0.2201(4) 0.30888(15)
H17 H 0.2810 0.2296 0.3277
C24 C 0.38138(12) 0.7721(4) 0.47903(15)
H18 H 0.3880 0.8485 0.4935
C25 C 0.29310(10) 0.5211(4) 0.22951(15)
H19 H 0.2710 0.5228 0.2177
C26 C 0.46965(10) 0.3623(4) 0.28526(15)
H20 H 0.4842 0.3109 0.3044
C27 C 0.44789(12) 0.3686(6) 0.40104(19)
H21 H 0.4656 0.4233 0.4012
C28 C 0.43566(10) 0.1516(4) 0.13307(15)
H22 H 0.4393 0.2218 0.1145
C29 C 0.40996(10) 0.0602(4) 0.19053(14)
C30 C 0.47163(10) 0.4909(4) 0.28867(15)
H23 H 0.4878 0.5290 0.3100
C31 C 0.36582(11) 0.1372(4) 0.39898(15)
H24 H 0.3677 0.0643 0.3786
H25 H 0.3639 0.1068 0.4310
C32 C 0.29121(11) 0.2215(4) 0.26077(16)
H26 H 0.2697 0.2317 0.2468
C33 C 0.38266(11) 0.6640(4) 0.50479(15)
H27 H 0.3909 0.6644 0.5371
C34 C 0.32168(10) 0.4299(4) 0.07045(14)
H28 H 0.3133 0.5082 0.0600
C35 C 0.31518(10) 0.2084(4) 0.23226(15)
H29 H 0.3105 0.2118 0.1991
C36 C 0.41720(10) 0.4129(5) 0.39882(16)
H30 H 0.4138 0.4999 0.3972
C37 C 0.42619(13) 0.1640(5) 0.40239(18)
H31 H 0.4291 0.0767 0.4035
C38 C 0.37009(12) 0.7667(4) 0.43124(16)
H32 H 0.3690 0.8394 0.4125
C39 C 0.32285(11) 0.2089(4) 0.06364(15)
H33 H 0.3158 0.1344 0.0481
C40 C 0.42585(11) -0.0501(4) 0.18637(15)
H34 H 0.4221 -0.1188 0.2056
C41 C 0.45223(13) 0.2430(6) 0.4031(2)
H35 H 0.4733 0.2097 0.4050
C42 C 0.45240(12) 0.0424(5) 0.12683(17)
H36 H 0.4671 0.0387 0.1043
N10 N 0.30062(13) 0.3914(10) 0.4076(3)
C43 C 0.28322(19) 0.4998(7) 0.4110(3)
H37 H 0.2935 0.5779 0.4104
C44 C 0.25073(18) 0.4938(6) 0.4155(3)
H38 H 0.2388 0.5678 0.4179
C45 C 0.23564(14) 0.3795(7) 0.4165(3)
H39 H 0.2134 0.3754 0.4196
C46 C 0.25303(19) 0.2711(5) 0.4130(3)
H40 H 0.2427 0.1930 0.4137
C47 C 0.28552(18) 0.2771(8) 0.4086(3)
C48 C 0.30822(11) 0.1717(4) 0.40535(15)
H41 H 0.2967 0.1027 0.3879
H42 H 0.3159 0.1417 0.4373
S1 S 0.34503(3) 0.20026(10) 0.52845(4)
O1 O 0.35599(9) 0.2741(3) 0.49174(11)
O2 O 0.32921(9) 0.0861(3) 0.51307(11)
O3 O 0.32944(9) 0.2702(4) 0.56128(12)
C55 C 0.38189(14) 0.1470(5) 0.5609(2)
F1 F 0.39922(7) 0.2391(3) 0.58220(12)
F2 F 0.40001(10) 0.0887(4) 0.53435(17)
F3 F 0.37556(11) 0.0700(4) 0.59483(16)
O4 O 0.40720(11) -0.1952(4) 0.27900(14)
O5 O 0.42255(15) -0.2867(5) 0.3528(2)
O6 O 0.39834(11) -0.0831(5) 0.34803(18)
S2 S 0.41702(3) -0.17603(13) 0.32723(5)
C56 C 0.4553(2) -0.0977(7) 0.3276(3)
F4 F 0.45201(15) 0.0085(5) 0.3036(2)
F5 F 0.47646(11) -0.1672(5) 0.3069(2)
F6 F 0.46967(9) -0.0732(4) 0.37074(16)
S4 S 0.45595(2) 0.48821(11) 0.10950(4)
O10 O 0.42354(7) 0.4404(3) 0.10625(10)
O11 O 0.46108(8) 0.6014(3) 0.13517(12)
O12 O 0.48025(7) 0.3954(3) 0.12048(12)
F10 F 0.45703(8) 0.4340(4) 0.02136(12)
F11 F 0.43895(9) 0.6140(4) 0.03255(12)
F12 F 0.48965(8) 0.5779(4) 0.04686(12)
C58 C 0.46059(12) 0.5311(6) 0.04952(18)
S5 S 0.26302(3) 0.83700(12) 0.36740(4)
F13 F 0.25630(8) 0.9617(3) 0.44309(12)
F14 F 0.26540(8) 0.7674(3) 0.45483(10)
F15 F 0.30378(8) 0.8899(3) 0.44128(12)
O13 O 0.23064(8) 0.7934(3) 0.36201(12)
O14 O 0.28592(10) 0.7409(5) 0.35823(14)
O15 O 0.26835(12) 0.9514(4) 0.34657(15)
C59 C 0.27325(9) 0.8623(4) 0.42773(15)
loop_
_geom_bond_atom_site_label_1
_geom_bond_atom_site_label_2
_geom_bond_site_symmetry_1
_geom_bond_site_symmetry_2
Cu1 N1 1_555 1_555
Cu2 N3 1_555 1_555
N1 C6 1_555 1_555
N2 Cu1 1_555 1_555
N3 C4 1_555 1_555
N4 Cu2 1_555 1_555
N5 Cu2 1_555 1_555
N6 Cu1 1_555 1_555
N7 Cu1 1_555 1_555
C1 H1 1_555 1_555
N8 Cu1 1_555 1_555
C2 N2 1_555 1_555
N9 Cu2 1_555 1_555
C3 H2 1_555 1_555
C4 C16 1_555 1_555
C5 N3 1_555 1_555
H3 C5 1_555 1_555
C6 H4 1_555 1_555
C7 H5 1_555 1_555
C8 N4 1_555 1_555
C9 H6 1_555 1_555
C10 N6 1_555 1_555
H7 C10 1_555 1_555
H8 C10 1_555 1_555
C11 N6 1_555 1_555
H9 C11 1_555 1_555
H10 C11 1_555 1_555
C12 N7 1_555 1_555
C13 N1 1_555 1_555
C14 N2 1_555 1_555
H11 C14 1_555 1_555
C15 C1 1_555 1_555
C16 N4 1_555 1_555
H12 C16 1_555 1_555
C17 C13 1_555 1_555
H13 C17 1_555 1_555
C18 N7 1_555 1_555
H14 C18 1_555 1_555
C19 N5 1_555 1_555
C20 N6 1_555 1_555
C21 H15 1_555 1_555
C22 C20 1_555 1_555
H16 C22 1_555 1_555
C23 C15 1_555 1_555
H17 C23 1_555 1_555
C24 H18 1_555 1_555
C25 C7 1_555 1_555
H19 C25 1_555 1_555
C26 C6 1_555 1_555
H20 C26 1_555 1_555
C27 H21 1_555 1_555
C28 N8 1_555 1_555
H22 C28 1_555 1_555
C29 N8 1_555 1_555
C30 C17 1_555 1_555
H23 C30 1_555 1_555
C31 N9 1_555 1_555
H24 C31 1_555 1_555
H25 C31 1_555 1_555
C32 C23 1_555 1_555
H26 C32 1_555 1_555
C33 C5 1_555 1_555
H27 C33 1_555 1_555
C34 C9 1_555 1_555
H28 C34 1_555 1_555
C35 C2 1_555 1_555
H29 C35 1_555 1_555
C36 N5 1_555 1_555
H30 C36 1_555 1_555
C37 C19 1_555 1_555
H31 C37 1_555 1_555
C38 C4 1_555 1_555
H32 C38 1_555 1_555
C39 C9 1_555 1_555
H33 C39 1_555 1_555
C40 C21 1_555 1_555
H34 C40 1_555 1_555
C41 C27 1_555 1_555
H35 C41 1_555 1_555
C42 C21 1_555 1_555
H36 C42 1_555 1_555
N10 Cu2 1_555 1_555
C43 N10 1_555 1_555
H37 C43 1_555 1_555
C44 C43 1_555 1_555
H38 C44 1_555 1_555
C45 C44 1_555 1_555
H39 C45 1_555 1_555
C46 C45 1_555 1_555
H40 C46 1_555 1_555
C47 N10 1_555 1_555
C48 N9 1_555 1_555
H41 C48 1_555 1_555
H42 C48 1_555 1_555
S1 O1 1_555 1_555
O2 S1 1_555 1_555
O3 S1 1_555 1_555
C55 S1 1_555 1_555
F1 C55 1_555 1_555
F2 C55 1_555 1_555
F3 C55 1_555 1_555
O4 S2 1_555 1_555
O5 S2 1_555 1_555
O6 S2 1_555 1_555
S2 C56 1_555 1_555
C56 F4 1_555 1_555
F5 C56 1_555 1_555
F6 C56 1_555 1_555
S4 O10 1_555 1_555
O11 S4 1_555 1_555
O12 S4 1_555 1_555
F10 C58 1_555 1_555
F11 C58 1_555 1_555
F12 C58 1_555 1_555
C58 S4 1_555 1_555
S5 O13 1_555 1_555
F13 C59 1_555 1_555
F14 C59 1_555 1_555
F15 C59 1_555 1_555
O14 S5 1_555 1_555
O15 S5 1_555 1_555
C59 S5 1_555 1_555
C1 C2 1_555 1_555
N9 C15 1_555 1_555
C3 C8 1_555 1_555
C3 C20 1_555 1_555
C7 C8 1_555 1_555
C10 C12 1_555 1_555
C11 C13 1_555 1_555
C12 C34 1_555 1_555
C14 C29 1_555 1_555
C18 C39 1_555 1_555
C19 C31 1_555 1_555
C22 C25 1_555 1_555
C24 C33 1_555 1_555
C24 C38 1_555 1_555
C26 C30 1_555 1_555
C27 C36 1_555 1_555
C28 C42 1_555 1_555
C29 C40 1_555 1_555
C32 C35 1_555 1_555
C37 C41 1_555 1_555
C46 C47 1_555 1_555
C47 C48 1_555 1_555

#END
