
#######################################################################
#
#                 Cambridge Crystallographic Data Centre
#                                CCDC 
#
#######################################################################
#
# If this CIF has been generated from an entry in the Cambridge 
# Structural Database, then it will include bibliographic, chemical, 
# crystal, experimental, refinement or atomic coordinate data resulting 
# from the CCDC's data processing and validation procedures.
#
#######################################################################

data_SERWIY
_chemical_formula_moiety         
'C80 H64 N16 Pd4 8+,8(C7 H7 O3 S1 1-),2(C2 H4 O2),9.5(H2 O1)'
_chemical_name_systematic        
"tetrakis(\m-4,4'-bipyridine)-tetrakis(2,2'-bipyridine)-tetra-palladium octakis(4-methylbenzene-1-sulfonate) acetic acid solvate hydrate"
_symmetry_cell_setting           monoclinic
_symmetry_space_group_name_H-M   'P 21/c'
_symmetry_Int_Tables_number      14
_space_group_name_Hall           '-P 2ybc'
loop_
_symmetry_equiv_pos_site_id
_symmetry_equiv_pos_as_xyz
1 x,y,z
2 -x,1/2+y,1/2-z
3 -x,-y,-z
4 x,1/2-y,1/2+z
_cell_length_a                   22.4777(9)
_cell_length_b                   17.5821(6)
_cell_length_c                   19.0678(7)
_cell_angle_alpha                90
_cell_angle_beta                 104.867(2)
_cell_angle_gamma                90
_cell_volume                     7283.43
_exptl_crystal_colour            yellow
_exptl_crystal_description       block
_cell_formula_units_Z            2
loop_
_atom_site_label
_atom_site_type_symbol
_atom_site_fract_x
_atom_site_fract_y
_atom_site_fract_z
C1 C 0.7351(3) 0.4804(3) 0.6333(3)
H1 H 0.6948 0.4631 0.6240
C2 C 0.7482(3) 0.5569(3) 0.6511(4)
H2 H 0.7166 0.5904 0.6533
C3 C 0.8071(3) 0.5817(3) 0.6650(4)
H3 H 0.8163 0.6324 0.6771
C4 C 0.8529(3) 0.5318(3) 0.6613(3)
H4 H 0.8936 0.5482 0.6711
C5 C 0.8383(3) 0.4569(3) 0.6429(3)
C6 C 0.8831(3) 0.4001(3) 0.6329(3)
C7 C 0.9449(3) 0.4146(4) 0.6414(3)
H5 H 0.9610 0.4625 0.6561
C8 C 0.9829(3) 0.3575(4) 0.6279(4)
H6 H 1.0247 0.3665 0.6339
C9 C 0.9586(3) 0.2885(4) 0.6059(4)
H7 H 0.9834 0.2496 0.5961
C10 C 0.8971(3) 0.2767(3) 0.5982(3)
H8 H 0.8809 0.2291 0.5828
C11 C 0.6529(3) 0.3023(3) 0.6546(3)
H9 H 0.6792 0.2945 0.7003
C12 C 0.5902(3) 0.2978(4) 0.6468(3)
H10 H 0.5752 0.2876 0.6870
C13 C 0.5496(2) 0.3085(3) 0.5790(3)
C14 C 0.5759(3) 0.3259(3) 0.5229(3)
H11 H 0.5508 0.3352 0.4768
C15 C 0.6377(3) 0.3296(3) 0.5344(3)
H12 H 0.6534 0.3414 0.4951
C16 C 0.4814(2) 0.3024(3) 0.5664(3)
C17 C 0.4533(3) 0.2908(3) 0.6218(3)
H13 H 0.4770 0.2858 0.6693
C18 C 0.3898(3) 0.2867(3) 0.6067(3)
H14 H 0.3718 0.2790 0.6450
C19 C 0.3807(3) 0.3022(3) 0.4854(3)
H15 H 0.3561 0.3049 0.4381
C20 C 0.4433(3) 0.3075(3) 0.4966(3)
H16 H 0.4602 0.3146 0.4574
C21 C 0.2708(3) -0.1814(3) 0.4820(3)
H17 H 0.2915 -0.2163 0.5164
C22 C 0.2762(3) -0.1056(3) 0.4983(3)
H18 H 0.3014 -0.0896 0.5424
C23 C 0.2441(2) -0.0522(3) 0.4490(3)
C24 C 0.2081(3) -0.0799(3) 0.3849(3)
H19 H 0.1850 -0.0462 0.3511
C25 C 0.2053(3) -0.1566(3) 0.3694(3)
H20 H 0.1816 -0.1736 0.3248
C26 C 0.2492(2) 0.0301(3) 0.4659(3)
C27 C 0.2581(3) 0.0572(3) 0.5349(3)
H21 H 0.2622 0.0228 0.5728
C28 C 0.2613(3) 0.1333(3) 0.5501(3)
H22 H 0.2668 0.1497 0.5977
C29 C 0.2493(3) 0.1603(3) 0.4293(3)
H23 H 0.2467 0.1959 0.3926
C30 C 0.2452(3) 0.0843(3) 0.4115(3)
H24 H 0.2400 0.0692 0.3636
C31 C 0.1262(3) 0.2617(4) 0.4798(3)
H25 H 0.1376 0.2117 0.4739
C32 C 0.0640(3) 0.2794(6) 0.4685(4)
H26 H 0.0342 0.2416 0.4558
C33 C 0.0474(4) 0.3531(6) 0.4765(4)
H27 H 0.0061 0.3661 0.4685
C34 C 0.0923(3) 0.4079(5) 0.4966(4)
H28 H 0.0815 0.4580 0.5026
C35 C 0.1533(3) 0.3881(3) 0.5077(3)
C36 C 0.2041(3) 0.4420(3) 0.5292(3)
C37 C 0.1964(4) 0.5190(3) 0.5409(3)
H29 H 0.1573 0.5397 0.5344
C38 C 0.2483(4) 0.5640(4) 0.5623(4)
H30 H 0.2442 0.6158 0.5700
C39 C 0.3041(4) 0.5334(4) 0.5720(3)
H31 H 0.3391 0.5637 0.5868
C40 C 0.3098(3) 0.4566(3) 0.5598(3)
H32 H 0.3489 0.4357 0.5666
N1 N 0.7799(2) 0.4320(2) 0.6297(2)
N2 N 0.8591(2) 0.3302(2) 0.6118(2)
N3 N 0.67772(19) 0.3175(2) 0.5985(2)
N4 N 0.23658(19) -0.2071(2) 0.4180(2)
N5 N 0.2566(2) 0.1846(2) 0.4968(2)
N6 N 0.1696(2) 0.3145(3) 0.4987(2)
N7 N 0.2607(2) 0.4114(2) 0.5385(2)
N8 N 0.35339(19) 0.2932(2) 0.5398(2)
Pd1 Pd 0.26108(2) 0.29867(2) 0.51982(2)
Pd2 Pd 0.76895(2) 0.31992(2) 0.60618(2)
C1B C 0.2649(3) -0.4804(3) 0.3667(3)
H1B H 0.3052 -0.4631 0.3760
C2B C 0.2518(3) -0.5569(3) 0.3489(4)
H2B H 0.2834 -0.5904 0.3467
C3B C 0.1929(3) -0.5817(3) 0.3350(4)
H3B H 0.1837 -0.6324 0.3229
C4B C 0.1471(3) -0.5318(3) 0.3387(3)
H4B H 0.1064 -0.5482 0.3289
C5B C 0.1617(3) -0.4569(3) 0.3571(3)
C6B C 0.1169(3) -0.4001(3) 0.3671(3)
C7B C 0.0551(3) -0.4146(4) 0.3586(3)
H5B H 0.0390 -0.4625 0.3439
C8B C 0.0171(3) -0.3575(4) 0.3721(4)
H6B H -0.0247 -0.3665 0.3661
C9B C 0.0414(3) -0.2885(4) 0.3941(4)
H7B H 0.0166 -0.2496 0.4039
C10B C 0.1029(3) -0.2767(3) 0.4018(3)
H8B H 0.1191 -0.2291 0.4172
C11B C 0.3471(3) -0.3023(3) 0.3454(3)
H9B H 0.3208 -0.2945 0.2997
C12B C 0.4098(3) -0.2978(4) 0.3532(3)
H10B H 0.4248 -0.2876 0.3130
C13B C 0.4504(2) -0.3085(3) 0.4210(3)
C14B C 0.4241(3) -0.3259(3) 0.4771(3)
H11B H 0.4492 -0.3352 0.5232
C15B C 0.3623(3) -0.3296(3) 0.4656(3)
H12B H 0.3466 -0.3414 0.5049
C16B C 0.5186(2) -0.3024(3) 0.4336(3)
C17B C 0.5467(3) -0.2908(3) 0.3782(3)
H13B H 0.5230 -0.2858 0.3307
C18B C 0.6102(3) -0.2867(3) 0.3933(3)
H14B H 0.6282 -0.2790 0.3550
C19B C 0.6193(3) -0.3022(3) 0.5146(3)
H15B H 0.6439 -0.3049 0.5619
C20B C 0.5567(3) -0.3075(3) 0.5034(3)
H16B H 0.5398 -0.3146 0.5426
C21B C 0.7292(3) 0.1814(3) 0.5180(3)
H17B H 0.7085 0.2163 0.4836
C22B C 0.7238(3) 0.1056(3) 0.5017(3)
H18B H 0.6986 0.0896 0.4576
C23B C 0.7559(2) 0.0522(3) 0.5510(3)
C24B C 0.7919(3) 0.0799(3) 0.6151(3)
H19B H 0.8150 0.0462 0.6489
C25B C 0.7947(3) 0.1566(3) 0.6306(3)
H20B H 0.8184 0.1736 0.6752
C26B C 0.7508(2) -0.0301(3) 0.5341(3)
C27B C 0.7419(3) -0.0572(3) 0.4651(3)
H21B H 0.7378 -0.0228 0.4272
C28B C 0.7387(3) -0.1333(3) 0.4499(3)
H22B H 0.7332 -0.1497 0.4023
C29B C 0.7507(3) -0.1603(3) 0.5707(3)
H23B H 0.7533 -0.1959 0.6074
C30B C 0.7548(3) -0.0843(3) 0.5885(3)
H24B H 0.7600 -0.0692 0.6364
C31B C 0.8738(3) -0.2617(4) 0.5202(3)
H25B H 0.8624 -0.2117 0.5261
C32B C 0.9360(3) -0.2794(6) 0.5315(4)
H26B H 0.9658 -0.2416 0.5442
C33B C 0.9526(4) -0.3531(6) 0.5235(4)
H27B H 0.9939 -0.3661 0.5315
C34B C 0.9077(3) -0.4079(5) 0.5034(4)
H28B H 0.9185 -0.4580 0.4974
C35B C 0.8467(3) -0.3881(3) 0.4923(3)
C36B C 0.7959(3) -0.4420(3) 0.4708(3)
C37B C 0.8036(4) -0.5190(3) 0.4591(3)
H29B H 0.8427 -0.5397 0.4656
C38B C 0.7517(4) -0.5640(4) 0.4377(4)
H30B H 0.7558 -0.6158 0.4300
C39B C 0.6959(4) -0.5334(4) 0.4280(3)
H31B H 0.6609 -0.5637 0.4132
C40B C 0.6902(3) -0.4566(3) 0.4402(3)
H32B H 0.6511 -0.4357 0.4334
N1B N 0.2201(2) -0.4320(2) 0.3703(2)
N2B N 0.1409(2) -0.3302(2) 0.3882(2)
N3B N 0.32228(19) -0.3175(2) 0.4015(2)
N4B N 0.76342(19) 0.2071(2) 0.5820(2)
N5B N 0.7434(2) -0.1846(2) 0.5032(2)
N6B N 0.8304(2) -0.3145(3) 0.5013(2)
N7B N 0.7393(2) -0.4114(2) 0.4615(2)
N8B N 0.64661(19) -0.2932(2) 0.4602(2)
Pd1B Pd 0.73892(2) -0.29867(2) 0.48018(2)
Pd2B Pd 0.23105(2) -0.31992(2) 0.39382(2)
C41 C 0.4886(3) 0.3492(4) 0.9144(4)
C42 C 0.5418(4) 0.3606(4) 0.9670(5)
H33 H 0.5794 0.3483 0.9582
C43 C 0.5396(5) 0.3901(5) 1.0331(5)
H34 H 0.5760 0.3972 1.0690
C44 C 0.4842(6) 0.4095(4) 1.0470(5)
C45 C 0.4312(4) 0.3995(4) 0.9932(5)
H35 H 0.3934 0.4130 1.0012
C46 C 0.4336(3) 0.3696(4) 0.9277(4)
H36 H 0.3973 0.3630 0.8916
C47 C 0.4820(6) 0.4400(6) 1.1213(5)
H37 H 0.5147 0.4178 1.1581
H38 H 0.4432 0.4271 1.1305
H39 H 0.4866 0.4943 1.1220
O1 O 0.4309(3) 0.3063(5) 0.7837(3)
O2 O 0.5078(3) 0.2258(4) 0.8520(3)
O3 O 0.5367(3) 0.3370(4) 0.8045(4)
S1 S 0.49092(9) 0.30278(14) 0.83187(10)
C48 C 0.8245(3) 0.3796(4) 0.8711(3)
C49 C 0.8104(4) 0.4442(5) 0.8281(4)
H40 H 0.7797 0.4420 0.7849
C50 C 0.8413(5) 0.5111(5) 0.8489(5)
H41 H 0.8303 0.5538 0.8197
C51 C 0.8876(4) 0.5171(5) 0.9108(5)
C52 C 0.8994(4) 0.4550(5) 0.9554(5)
H42 H 0.9285 0.4589 0.9998
C53 C 0.8692(4) 0.3859(5) 0.9362(4)
H43 H 0.8789 0.3442 0.9669
C54 C 0.9237(5) 0.5919(6) 0.9303(7)
H44 H 0.9313 0.6010 0.9815
H45 H 0.9000 0.6332 0.9041
H46 H 0.9621 0.5882 0.9174
O4 O 0.7973(2) 0.2758(3) 0.7725(3)
O5 O 0.7198(2) 0.3101(3) 0.8326(3)
O6 O 0.8070(3) 0.2403(3) 0.8996(3)
S2 S 0.78458(8) 0.29404(11) 0.84137(10)
C55 C 0.7595(4) 0.6241(4) 0.2790(3)
C56 C 0.6974(3) 0.6090(4) 0.2538(3)
H47 H 0.6690 0.6486 0.2465
C57 C 0.6776(3) 0.5355(4) 0.2395(4)
H48 H 0.6357 0.5260 0.2218
C58 C 0.7179(4) 0.4762(4) 0.2505(4)
C59 C 0.7789(4) 0.4902(5) 0.2758(4)
H49 H 0.8065 0.4497 0.2838
C60 C 0.8006(4) 0.5634(6) 0.2898(4)
H50 H 0.8427 0.5721 0.3065
C61 C 0.6952(5) 0.3951(4) 0.2364(5)
H51 H 0.6624 0.3863 0.2592
H52 H 0.7284 0.3605 0.2560
H53 H 0.6804 0.3869 0.1851
O7 O 0.8473(4) 0.7161(5) 0.3421(4)
O8 O 0.7807(3) 0.7513(3) 0.2243(3)
O9 O 0.7392(4) 0.7535(4) 0.3272(4)
S3 S 0.78396(13) 0.71955(14) 0.29458(11)
C62 C 0.0060(3) 0.7152(4) 0.7245(4)
C63 C -0.0535(3) 0.7336(4) 0.7232(4)
H54 H -0.0785 0.6980 0.7378
C64 C -0.0764(3) 0.8046(4) 0.7004(4)
H55 H -0.1169 0.8165 0.6996
C65 C -0.0399(3) 0.8581(4) 0.6788(4)
C66 C 0.0201(3) 0.8397(4) 0.6823(4)
H56 H 0.0455 0.8759 0.6692
C67 C 0.0438(3) 0.7686(4) 0.7048(4)
H57 H 0.0845 0.7570 0.7066
C68 C -0.0651(5) 0.9362(5) 0.6531(5)
H58 H -0.0864 0.9568 0.6865
H59 H -0.0931 0.9320 0.6059
H60 H -0.0317 0.9694 0.6506
O10 O -0.0059(4) 0.5738(3) 0.7186(6)
O11 O 0.0944(3) 0.6171(4) 0.7385(4)
O12 O 0.0518(4) 0.6245(3) 0.8333(4)
S4 S 0.03462(10) 0.62336(10) 0.75395(13)
C69 C 0.5223(5) 1.0151(6) 0.8206(5)
H61 H 0.4842 1.0315 0.7885
H62 H 0.5340 0.9668 0.8047
H63 H 0.5538 1.0519 0.8204
C70 C 0.5145(5) 1.0074(4) 0.8961(5)
O13 O 0.5590(3) 0.9972(4) 0.9481(4)
O14 O 0.4569(4) 1.0140(5) 0.9029(4)
H64 H 0.448(6) 1.009(8) 0.942(4)
O15 O 0.6392(3) 0.4280(4) 0.8307(4)
O16 O 0.6411(3) 0.2023(3) 0.8728(3)
O17 O 0.3527(5) 0.1768(5) 0.7979(6)
O18 O 0.6392(4) 0.5223(5) 0.7202(5)
O19 O 0.9004(3) 0.1260(4) 0.9121(3)
loop_
_geom_bond_atom_site_label_1
_geom_bond_atom_site_label_2
_geom_bond_site_symmetry_1
_geom_bond_site_symmetry_2
C1 H1 1_555 1_555
C2 C1 1_555 1_555
H2 C2 1_555 1_555
C3 C2 1_555 1_555
H3 C3 1_555 1_555
C4 C3 1_555 1_555
H4 C4 1_555 1_555
C5 C4 1_555 1_555
C6 C5 1_555 1_555
C7 C6 1_555 1_555
H5 C7 1_555 1_555
C8 C7 1_555 1_555
H6 C8 1_555 1_555
C9 C8 1_555 1_555
H7 C9 1_555 1_555
C10 C9 1_555 1_555
H8 C10 1_555 1_555
C11 H9 1_555 1_555
C12 C11 1_555 1_555
H10 C12 1_555 1_555
C13 C12 1_555 1_555
C14 C13 1_555 1_555
H11 C14 1_555 1_555
C15 C14 1_555 1_555
H12 C15 1_555 1_555
C16 C13 1_555 1_555
C17 C16 1_555 1_555
H13 C17 1_555 1_555
C18 C17 1_555 1_555
H14 C18 1_555 1_555
C19 H15 1_555 1_555
C20 C16 1_555 1_555
H16 C20 1_555 1_555
C21 H17 1_555 1_555
C22 C21 1_555 1_555
H18 C22 1_555 1_555
C23 C22 1_555 1_555
C24 C23 1_555 1_555
H19 C24 1_555 1_555
C25 C24 1_555 1_555
H20 C25 1_555 1_555
C26 C23 1_555 1_555
C27 C26 1_555 1_555
H21 C27 1_555 1_555
C28 C27 1_555 1_555
H22 C28 1_555 1_555
C29 H23 1_555 1_555
C30 C26 1_555 1_555
H24 C30 1_555 1_555
C31 H25 1_555 1_555
C32 C31 1_555 1_555
H26 C32 1_555 1_555
C33 C32 1_555 1_555
H27 C33 1_555 1_555
C34 C33 1_555 1_555
H28 C34 1_555 1_555
C35 C34 1_555 1_555
C36 C35 1_555 1_555
C37 C36 1_555 1_555
H29 C37 1_555 1_555
C38 C37 1_555 1_555
H30 C38 1_555 1_555
C39 C38 1_555 1_555
H31 C39 1_555 1_555
C40 C39 1_555 1_555
H32 C40 1_555 1_555
N1 C1 1_555 1_555
N2 C6 1_555 1_555
N3 C11 1_555 1_555
N4 C21 1_555 1_555
N5 C28 1_555 1_555
N6 C31 1_555 1_555
N7 C36 1_555 1_555
N8 C18 1_555 1_555
Pd1 N5 1_555 1_555
Pd2 N1 1_555 1_555
C41 C42 1_555 1_555
C42 H33 1_555 1_555
C43 C42 1_555 1_555
H34 C43 1_555 1_555
C44 C43 1_555 1_555
C45 C44 1_555 1_555
H35 C45 1_555 1_555
C46 C41 1_555 1_555
H36 C46 1_555 1_555
C47 C44 1_555 1_555
H37 C47 1_555 1_555
H38 C47 1_555 1_555
H39 C47 1_555 1_555
O1 S1 1_555 1_555
O2 S1 1_555 1_555
O3 S1 1_555 1_555
S1 C41 1_555 1_555
C48 C49 1_555 1_555
C49 H40 1_555 1_555
C50 C49 1_555 1_555
H41 C50 1_555 1_555
C51 C50 1_555 1_555
C52 C51 1_555 1_555
H42 C52 1_555 1_555
C53 C48 1_555 1_555
H43 C53 1_555 1_555
C54 C51 1_555 1_555
H44 C54 1_555 1_555
H45 C54 1_555 1_555
H46 C54 1_555 1_555
O4 S2 1_555 1_555
O5 S2 1_555 1_555
O6 S2 1_555 1_555
S2 C48 1_555 1_555
C55 C56 1_555 1_555
C56 H47 1_555 1_555
C57 C56 1_555 1_555
H48 C57 1_555 1_555
C58 C57 1_555 1_555
C59 C58 1_555 1_555
H49 C59 1_555 1_555
C60 C55 1_555 1_555
H50 C60 1_555 1_555
C61 C58 1_555 1_555
H51 C61 1_555 1_555
H52 C61 1_555 1_555
H53 C61 1_555 1_555
O7 S3 1_555 1_555
O8 S3 1_555 1_555
O9 S3 1_555 1_555
S3 C55 1_555 1_555
C62 C63 1_555 1_555
C63 H54 1_555 1_555
C64 C63 1_555 1_555
H55 C64 1_555 1_555
C65 C64 1_555 1_555
C66 C65 1_555 1_555
H56 C66 1_555 1_555
C67 C62 1_555 1_555
H57 C67 1_555 1_555
C68 C65 1_555 1_555
H58 C68 1_555 1_555
H59 C68 1_555 1_555
H60 C68 1_555 1_555
O10 S4 1_555 1_555
O11 S4 1_555 1_555
O12 S4 1_555 1_555
S4 C62 1_555 1_555
C69 H61 1_555 1_555
H62 C69 1_555 1_555
H63 C69 1_555 1_555
C70 C69 1_555 1_555
O13 C70 1_555 1_555
O14 C70 1_555 1_555
H64 O14 1_555 1_555
C1B H1B 1_555 1_555
C2B C1B 1_555 1_555
H2B C2B 1_555 1_555
C3B C2B 1_555 1_555
H3B C3B 1_555 1_555
C4B C3B 1_555 1_555
H4B C4B 1_555 1_555
C5B C4B 1_555 1_555
C6B C5B 1_555 1_555
C7B C6B 1_555 1_555
H5B C7B 1_555 1_555
C8B C7B 1_555 1_555
H6B C8B 1_555 1_555
C9B C8B 1_555 1_555
H7B C9B 1_555 1_555
C10B C9B 1_555 1_555
H8B C10B 1_555 1_555
C11B H9B 1_555 1_555
C12B C11B 1_555 1_555
H10B C12B 1_555 1_555
C13B C12B 1_555 1_555
C14B C13B 1_555 1_555
H11B C14B 1_555 1_555
C15B C14B 1_555 1_555
H12B C15B 1_555 1_555
C16B C13B 1_555 1_555
C17B C16B 1_555 1_555
H13B C17B 1_555 1_555
C18B C17B 1_555 1_555
H14B C18B 1_555 1_555
C19B H15B 1_555 1_555
C20B C16B 1_555 1_555
H16B C20B 1_555 1_555
C21B H17B 1_555 1_555
C22B C21B 1_555 1_555
H18B C22B 1_555 1_555
C23B C22B 1_555 1_555
C24B C23B 1_555 1_555
H19B C24B 1_555 1_555
C25B C24B 1_555 1_555
H20B C25B 1_555 1_555
C26B C23B 1_555 1_555
C27B C26B 1_555 1_555
H21B C27B 1_555 1_555
C28B C27B 1_555 1_555
H22B C28B 1_555 1_555
C29B H23B 1_555 1_555
C30B C26B 1_555 1_555
H24B C30B 1_555 1_555
C31B H25B 1_555 1_555
C32B C31B 1_555 1_555
H26B C32B 1_555 1_555
C33B C32B 1_555 1_555
H27B C33B 1_555 1_555
C34B C33B 1_555 1_555
H28B C34B 1_555 1_555
C35B C34B 1_555 1_555
C36B C35B 1_555 1_555
C37B C36B 1_555 1_555
H29B C37B 1_555 1_555
C38B C37B 1_555 1_555
H30B C38B 1_555 1_555
C39B C38B 1_555 1_555
H31B C39B 1_555 1_555
C40B C39B 1_555 1_555
H32B C40B 1_555 1_555
N1B C1B 1_555 1_555
N2B C6B 1_555 1_555
N3B C11B 1_555 1_555
N4B Pd2 1_555 1_555
N5B C28B 1_555 1_555
N6B C31B 1_555 1_555
N7B C36B 1_555 1_555
N8B C18B 1_555 1_555
Pd1B N5B 1_555 1_555
Pd2B N4 1_555 1_555
C5 N1 1_555 1_555
C10 N2 1_555 1_555
C15 N3 1_555 1_555
C19 C20 1_555 1_555
C19 N8 1_555 1_555
C25 N4 1_555 1_555
C29 C30 1_555 1_555
C29 N5 1_555 1_555
C35 N6 1_555 1_555
C40 N7 1_555 1_555
N2 Pd2 1_555 1_555
N3 Pd2 1_555 1_555
N6 Pd1 1_555 1_555
N7 Pd1 1_555 1_555
N8 Pd1 1_555 1_555
C45 C46 1_555 1_555
C52 C53 1_555 1_555
C59 C60 1_555 1_555
C66 C67 1_555 1_555
C5B N1B 1_555 1_555
C10B N2B 1_555 1_555
C15B N3B 1_555 1_555
C19B C20B 1_555 1_555
C19B N8B 1_555 1_555
C21B N4B 1_555 1_555
C25B N4B 1_555 1_555
C29B C30B 1_555 1_555
C29B N5B 1_555 1_555
C35B N6B 1_555 1_555
C40B N7B 1_555 1_555
N1B Pd2B 1_555 1_555
N2B Pd2B 1_555 1_555
N3B Pd2B 1_555 1_555
N6B Pd1B 1_555 1_555
N7B Pd1B 1_555 1_555
N8B Pd1B 1_555 1_555

#END
