
#######################################################################
#
#                 Cambridge Crystallographic Data Centre
#                                CCDC 
#
#######################################################################
#
# If this CIF has been generated from an entry in the Cambridge 
# Structural Database, then it will include bibliographic, chemical, 
# crystal, experimental, refinement or atomic coordinate data resulting 
# from the CCDC's data processing and validation procedures.
#
#######################################################################

data_SIKDUM
_chemical_name_common            
"tetrakis(mu!2$-4-Pyridinecarboxylato-N,O)-tetrakis(N,N,N',N'-tetramethylethylenediamine-N,N')-tetra-palladium tetrakis(hexafluorophosphate)"
_chemical_formula_moiety         'C48 H80 N12 O8 Pd4 4+,4(F6 P1 1-)'
_chemical_name_systematic        
"tetrakis(\m~2~-Isonicotinato-N,O)-tetrakis(N,N,N',N'-tetramethylethylenediamine-N,N')-tetra-palladium tetrakis(hexafluorophosphate)"
_symmetry_cell_setting           tetragonal
_symmetry_space_group_name_H-M   'I 4/m'
_symmetry_Int_Tables_number      87
_space_group_name_Hall           '-I 4'
loop_
_symmetry_equiv_pos_site_id
_symmetry_equiv_pos_as_xyz
1 x,y,z
2 -y,x,z
3 y,-x,z
4 1/2+x,1/2+y,1/2+z
5 1/2-y,1/2+x,1/2+z
6 1/2+y,1/2-x,1/2+z
7 -x,-y,z
8 1/2-x,1/2-y,1/2+z
9 -x,-y,-z
10 y,-x,-z
11 -y,x,-z
12 1/2-x,1/2-y,1/2-z
13 1/2+y,1/2-x,1/2-z
14 1/2-y,1/2+x,1/2-z
15 x,y,-z
16 1/2+x,1/2+y,1/2-z
_cell_length_a                   20.795(3)
_cell_length_b                   20.795(3)
_cell_length_c                   9.964(2)
_cell_angle_alpha                90
_cell_angle_beta                 90
_cell_angle_gamma                90
_cell_volume                     4308.75
_cell_formula_units_Z            2
_exptl_crystal_recrystallization_method acetone/water
loop_
_atom_site_label
_atom_site_type_symbol
_atom_site_fract_x
_atom_site_fract_y
_atom_site_fract_z
Pd1 Pd 0.71458(5) 0.11000(5) 0.0000
O1 O 0.8024(7) 0.1478(10) 0.0277(11)
O2 O 0.8251(10) 0.1317(11) 0.192(2)
N1 N 0.7563(7) 0.0217(7) 0.0000
N2 N 0.6726(6) 0.1988(6) 0.0000
N3 N 0.6204(8) 0.0739(9) 0.0363(15)
C1 C 0.8388(15) 0.1540(11) 0.073(3)
C2 C 0.9026(10) 0.1853(13) 0.058(4)
C3 C 0.9398(13) 0.1958(11) 0.163(3)
C4 C 0.7720(17) 0.0029(18) 0.147(4)
C7 C 0.6921(7) 0.2373(6) 0.1185(15)
C8 C 0.6043(8) 0.1901(9) 0.0000
C9 C 0.5868(15) 0.1364(17) 0.078(3)
C10 C 0.6162(13) 0.0259(13) 0.140(3)
Pd1A Pd 0.89000(5) -0.28542(5) 0.0000
Pd1H Pd 1.28542(5) -0.11000(5) 0.0000
Pd1B Pd 1.11000(5) 0.28542(5) 0.0000
O1N O 0.8024(7) 0.1478(10) -0.0277(11)
O1A O 0.8522(10) -0.1976(7) 0.0277(11)
O1J O 0.8522(10) -0.1976(7) -0.0277(11)
O1F O 1.1976(7) -0.1478(10) 0.0277(11)
O1H O 1.1976(7) -0.1478(10) -0.0277(11)
O1B O 1.1478(10) 0.1976(7) 0.0277(11)
O1I O 1.1478(10) 0.1976(7) -0.0277(11)
O2A O 0.8683(11) -0.1749(10) 0.192(2)
O2J O 0.8683(11) -0.1749(10) -0.192(2)
O2H O 1.1749(10) -0.1317(11) -0.192(2)
O2F O 1.1749(10) -0.1317(11) 0.192(2)
O2I O 1.1317(11) 0.1749(10) -0.192(2)
O2B O 1.1317(11) 0.1749(10) 0.192(2)
O2N O 0.8251(10) 0.1317(11) -0.192(2)
N1A N 0.9783(7) -0.2437(7) 0.0000
N1H N 1.2437(7) -0.0217(7) 0.0000
N1B N 1.0217(7) 0.2437(7) 0.0000
N2B N 1.1988(6) 0.3274(6) 0.0000
N2H N 1.3274(6) -0.1988(6) 0.0000
N2A N 0.8012(6) -0.3274(6) 0.0000
N3B N 1.0739(9) 0.3796(8) 0.0363(15)
N3I N 1.0739(9) 0.3796(8) -0.0363(15)
N3F N 1.3796(8) -0.0739(9) 0.0363(15)
N3H N 1.3796(8) -0.0739(9) -0.0363(15)
N3A N 0.9261(9) -0.3796(8) 0.0363(15)
N3J N 0.9261(9) -0.3796(8) -0.0363(15)
N3N N 0.6204(8) 0.0739(9) -0.0363(15)
C1A C 0.8460(11) -0.1612(15) 0.073(3)
C1J C 0.8460(11) -0.1612(15) -0.073(3)
C1F C 1.1612(15) -0.1540(11) 0.073(3)
C1H C 1.1612(15) -0.1540(11) -0.073(3)
C1B C 1.1540(11) 0.1612(15) 0.073(3)
C1I C 1.1540(11) 0.1612(15) -0.073(3)
C1N C 0.8388(15) 0.1540(11) -0.073(3)
C2A C 0.8147(13) -0.0974(10) 0.058(4)
C2J C 0.8147(13) -0.0974(10) -0.058(4)
C2F C 1.0974(10) -0.1853(13) 0.058(4)
C2H C 1.0974(10) -0.1853(13) -0.058(4)
C2B C 1.1853(13) 0.0974(10) 0.058(4)
C2I C 1.1853(13) 0.0974(10) -0.058(4)
C2N C 0.9026(10) 0.1853(13) -0.058(4)
C3A C 0.8042(11) -0.0602(13) 0.163(3)
C3J C 0.8042(11) -0.0602(13) -0.163(3)
C3F C 1.0602(13) -0.1958(11) 0.163(3)
C3H C 1.0602(13) -0.1958(11) -0.163(3)
C3B C 1.1958(11) 0.0602(13) 0.163(3)
C3I C 1.1958(11) 0.0602(13) -0.163(3)
C3N C 0.9398(13) 0.1958(11) -0.163(3)
C4N C 0.7720(17) 0.0029(18) -0.147(4)
C4A C 0.9971(18) -0.2280(17) 0.147(4)
C4J C 0.9971(18) -0.2280(17) -0.147(4)
C4F C 1.2280(17) -0.0029(18) 0.147(4)
C4H C 1.2280(17) -0.0029(18) -0.147(4)
C4B C 1.0029(18) 0.2280(17) 0.147(4)
C4I C 1.0029(18) 0.2280(17) -0.147(4)
C7B C 1.2373(6) 0.3079(7) 0.1185(15)
C7I C 1.2373(6) 0.3079(7) -0.1185(15)
C7F C 1.3079(7) -0.2373(6) 0.1185(15)
C7H C 1.3079(7) -0.2373(6) -0.1185(15)
C7A C 0.7627(6) -0.3079(7) 0.1185(15)
C7J C 0.7627(6) -0.3079(7) -0.1185(15)
C7N C 0.6921(7) 0.2373(6) -0.1185(15)
C8B C 1.1901(9) 0.3957(8) 0.0000
C8H C 1.3957(8) -0.1901(9) 0.0000
C8A C 0.8099(9) -0.3957(8) 0.0000
C9B C 1.1364(17) 0.4132(15) 0.078(3)
C9I C 1.1364(17) 0.4132(15) -0.078(3)
C9F C 1.4132(15) -0.1364(17) 0.078(3)
C9H C 1.4132(15) -0.1364(17) -0.078(3)
C9A C 0.8636(17) -0.4132(15) 0.078(3)
C9J C 0.8636(17) -0.4132(15) -0.078(3)
C9N C 0.5868(15) 0.1364(17) -0.078(3)
C10B C 1.0259(13) 0.3838(13) 0.140(3)
C10I C 1.0259(13) 0.3838(13) -0.140(3)
C10H C 1.3838(13) -0.0259(13) -0.140(3)
C10F C 1.3838(13) -0.0259(13) 0.140(3)
C10J C 0.9741(13) -0.3838(13) -0.140(3)
C10A C 0.9741(13) -0.3838(13) 0.140(3)
C10N C 0.6162(13) 0.0259(13) -0.140(3)
P1 P 0.6706(3) 0.1055(3) 0.4682(6)
F1 F 0.6296(9) 0.1440(8) 0.3721(16)
F2 F 0.7423(16) 0.1274(14) 0.426(3)
F3 F 0.6804(14) 0.0470(14) 0.381(3)
F4 F 0.6078(11) 0.0732(10) 0.5000
F5 F 0.677(2) 0.156(2) 0.415(5)
F6 F 0.7086(11) 0.0660(12) 0.428(2)
P1N P 0.6706(3) 0.1055(3) 0.5318(6)
F1N F 0.6296(9) 0.1440(8) 0.6279(16)
F2N F 0.7423(16) 0.1274(14) 0.574(3)
F3N F 0.6804(14) 0.0470(14) 0.619(3)
F5N F 0.677(2) 0.156(2) 0.585(5)
F6N F 0.7086(11) 0.0660(12) 0.572(2)
C5? C 0.9270(13) 0.184(2) 0.063(4)
C6? C 0.9888(17) 0.229(2) 0.078(4)
C11? C 0.5950(13) 0.0489(13) 0.093(3)
loop_
_geom_bond_atom_site_label_1
_geom_bond_atom_site_label_2
_geom_bond_site_symmetry_1
_geom_bond_site_symmetry_2
Pd1 O1 1_555 1_555
O1 C1 1_555 1_555
O2 C1 1_555 1_555
N1 Pd1 1_555 1_555
N2 Pd1 1_555 1_555
N3 Pd1 1_555 1_555
C1 C2 1_555 1_555
C2 C3 1_555 1_555
C3 C4B 1_555 1_555
C4 N1 1_555 1_555
C7 N2 1_555 1_555
C8 N2 1_555 1_555
C9 N3 1_555 1_555
C10 N3 1_555 1_555
P1 F1 1_555 1_555
F1 F5 1_555 1_555
F2 P1 1_555 1_555
F3 P1 1_555 1_555
F4 P1 1_555 1_555
F5 P1 1_555 1_555
F6 P1 1_555 1_555
Pd1A O1A 1_555 1_555
Pd1H O1F 1_555 1_555
Pd1B O1B 1_555 1_555
O1N Pd1 1_555 1_555
O1A O1J 1_555 1_555
O1J Pd1A 1_555 1_555
O1F O1H 1_555 1_555
O1H Pd1H 1_555 1_555
O1B O1I 1_555 1_555
O1I Pd1B 1_555 1_555
O2A C1A 1_555 1_555
O2J C1J 1_555 1_555
O2H C1H 1_555 1_555
O2F C1F 1_555 1_555
O2I C1I 1_555 1_555
O2B C1B 1_555 1_555
O2N C1N 1_555 1_555
N1A Pd1A 1_555 1_555
N1H Pd1H 1_555 1_555
N1B Pd1B 1_555 1_555
N2B Pd1B 1_555 1_555
N2H Pd1H 1_555 1_555
N2A Pd1A 1_555 1_555
N3B Pd1B 1_555 1_555
N3I Pd1B 1_555 1_555
N3F Pd1H 1_555 1_555
N3H Pd1H 1_555 1_555
N3A Pd1A 1_555 1_555
N3J Pd1A 1_555 1_555
N3N Pd1 1_555 1_555
C1A O1A 1_555 1_555
C1J O1A 1_555 1_555
C1F O1F 1_555 1_555
C1H O1F 1_555 1_555
C1B O1B 1_555 1_555
C1I O1B 1_555 1_555
C1N O1 1_555 1_555
C2A C1A 1_555 1_555
C2J C1J 1_555 1_555
C2F C1F 1_555 1_555
C2H C1H 1_555 1_555
C2B C1B 1_555 1_555
C2I C1I 1_555 1_555
C2N C2 1_555 1_555
C3A C4 1_555 1_555
C3J C2J 1_555 1_555
C3F C2F 1_555 1_555
C3H C2H 1_555 1_555
C3B C2B 1_555 1_555
C3I C2I 1_555 1_555
C3N C2N 1_555 1_555
C4N N1 1_555 1_555
C4A N1A 1_555 1_555
C4J N1A 1_555 1_555
C4F N1H 1_555 1_555
C4H N1H 1_555 1_555
C4B N1B 1_555 1_555
C4I N1B 1_555 1_555
C7B N2B 1_555 1_555
C7I N2B 1_555 1_555
C7F N2H 1_555 1_555
C7H N2H 1_555 1_555
C7A N2A 1_555 1_555
C7J N2A 1_555 1_555
C7N N2 1_555 1_555
C8B N2B 1_555 1_555
C8H N2H 1_555 1_555
C8A N2A 1_555 1_555
C9B N3B 1_555 1_555
C9I N3I 1_555 1_555
C9F N3F 1_555 1_555
C9H N3H 1_555 1_555
C9A N3A 1_555 1_555
C9J N3J 1_555 1_555
C9N C8 1_555 1_555
C10B N3B 1_555 1_555
C10I N3I 1_555 1_555
C10H N3H 1_555 1_555
C10F N3F 1_555 1_555
C10J N3J 1_555 1_555
C10A N3A 1_555 1_555
C10N N3N 1_555 1_555
P1N P1 1_555 1_555
F1N P1 1_555 1_555
F2N P1 1_555 1_555
F3N P1 1_555 1_555
F5N P1 1_555 1_555
F6N P1 1_555 1_555
O1 O1N 1_555 1_555
N3 N3N 1_555 1_555
C1 O1N 1_555 1_555
C1 C1N 1_555 1_555
C8 C9 1_555 1_555
C9 C9N 1_555 1_555
F1 P1N 1_555 1_555
F2 F5 1_555 1_555
F2 F6 1_555 1_555
F2 P1N 1_555 1_555
F2 F2N 1_555 1_555
F3 F6 1_555 1_555
F3 P1N 1_555 1_555
F4 P1N 1_555 1_555
F5 P1N 1_555 1_555
F6 P1N 1_555 1_555
F6 F6N 1_555 1_555
O1N C1N 1_555 1_555
O1J C1A 1_555 1_555
O1J C1J 1_555 1_555
O1H C1F 1_555 1_555
O1H C1H 1_555 1_555
O1I C1B 1_555 1_555
O1I C1I 1_555 1_555
N3B N3I 1_555 1_555
N3F N3H 1_555 1_555
N3A N3J 1_555 1_555
N3N C9N 1_555 1_555
C1A C1J 1_555 1_555
C1F C1H 1_555 1_555
C1B C1I 1_555 1_555
C1N C2N 1_555 1_555
C2A C2J 1_555 1_555
C2A C3A 1_555 1_555
C2F C2H 1_555 1_555
C2B C2I 1_555 1_555
C3J C4N 1_555 1_555
C3F C4A 1_555 1_555
C3H C4J 1_555 1_555
C3B C4F 1_555 1_555
C3I C4H 1_555 1_555
C3N C4I 1_555 1_555
C8B C9B 1_555 1_555
C8B C9I 1_555 1_555
C8H C9F 1_555 1_555
C8H C9H 1_555 1_555
C8A C9A 1_555 1_555
C8A C9J 1_555 1_555
C9B C9I 1_555 1_555
C9F C9H 1_555 1_555
C9A C9J 1_555 1_555
P1N F1N 1_555 1_555
P1N F2N 1_555 1_555
P1N F3N 1_555 1_555
P1N F5N 1_555 1_555
P1N F6N 1_555 1_555
F1N F5N 1_555 1_555
F2N F5N 1_555 1_555
F2N F6N 1_555 1_555
F3N F6N 1_555 1_555

#END
