
#######################################################################
#
#                 Cambridge Crystallographic Data Centre
#                                CCDC 
#
#######################################################################
#
# If this CIF has been generated from an entry in the Cambridge 
# Structural Database, then it will include bibliographic, chemical, 
# crystal, experimental, refinement or atomic coordinate data resulting 
# from the CCDC's data processing and validation procedures.
#
#######################################################################

data_SIZJAO02
_chemical_formula_moiety         'C116 H100 Fe4 N32 4+,4(B1 F4 1-),2(C2 H3 N1)'
_chemical_name_systematic        
'tetrakis(\m~2~-2-Phenyl-4,5-bis(6-(3,5-dimethyl-1H-pyrazol-1-yl)pyridin-2-yl)imidazolato)-tetra-iron(ii) tetrakis(tetrafluoroborate) acetonitrile solvate'
_symmetry_cell_setting           triclinic
_symmetry_space_group_name_H-M   'P -1'
_symmetry_Int_Tables_number      2
_space_group_name_Hall           '-P 1'
loop_
_symmetry_equiv_pos_site_id
_symmetry_equiv_pos_as_xyz
1 x,y,z
2 -x,-y,-z
_cell_length_a                   14.8611(7)
_cell_length_b                   15.5694(7)
_cell_length_c                   25.3433(11)
_cell_angle_alpha                88.9160(10)
_cell_angle_beta                 89.2600(10)
_cell_angle_gamma                84.3780(10)
_cell_volume                     5834.28
_exptl_crystal_colour            orange
_exptl_crystal_description       blocks
_cell_formula_units_Z            2
loop_
_atom_site_label
_atom_site_type_symbol
_atom_site_fract_x
_atom_site_fract_y
_atom_site_fract_z
B2 B 0.8304(8) 0.0863(8) 0.9083(5)
F5 F 0.7949(7) 0.0210(7) 0.9326(5)
F6 F 0.9164(3) 0.0892(5) 0.92111(19)
F7 F 0.8223(6) 0.0905(7) 0.8553(3)
F8 F 0.7809(5) 0.1550(4) 0.9290(3)
B4 B 0.7137(10) 0.2074(9) 0.5926(6)
F13 F 0.7017(8) 0.1328(5) 0.6191(3)
F14 F 0.7630(6) 0.2542(6) 0.6195(4)
F15 F 0.6368(3) 0.2499(6) 0.5789(3)
F16 F 0.7658(7) 0.1837(8) 0.5509(4)
B6 B 0.6837(10) 0.6471(11) 0.6134(6)
F21 F 0.6662(9) 0.7333(6) 0.6080(5)
F22 F 0.6398(7) 0.6202(9) 0.5737(5)
F23 F 0.7729(4) 0.6256(6) 0.6111(5)
F24 F 0.6568(10) 0.6294(8) 0.6614(4)
B8 B 0.8351(4) 0.5713(4) 0.9161(2)
F29 F 0.7654(4) 0.5648(4) 0.9486(2)
F30 F 0.8499(5) 0.5022(4) 0.8847(3)
F31 F 0.8158(3) 0.6443(2) 0.88619(16)
F32 F 0.9102(3) 0.5797(5) 0.9438(2)
Fe1 Fe 0.34219(2) -0.17496(3) 0.87626(2)
Fe2 Fe 0.13393(2) -0.24086(3) 0.66147(2)
Fe3 Fe 0.15038(2) 0.17091(3) 0.62776(2)
Fe4 Fe 0.35778(2) 0.23854(3) 0.84148(2)
N1 N 0.46030(15) -0.17439(16) 0.92781(9)
N2 N 0.54167(15) -0.19084(16) 0.90153(9)
N3 N 0.45899(13) -0.22331(15) 0.83104(8)
N4 N 0.28982(13) -0.21607(14) 0.80309(8)
N5 N 0.21954(13) -0.23146(14) 0.72691(8)
N6 N 0.26685(14) -0.28729(14) 0.63371(8)
N7 N 0.19882(15) -0.32273(16) 0.55789(9)
N8 N 0.11842(15) -0.29271(15) 0.58213(9)
N9 N 0.07130(15) -0.35459(17) 0.69288(9)
N10 N -0.01639(15) -0.33809(17) 0.71047(9)
N11 N -0.00137(14) -0.19807(16) 0.68711(8)
N12 N 0.11979(14) -0.10385(15) 0.64434(8)
N13 N 0.13298(14) 0.03857(15) 0.64667(8)
N14 N 0.01535(15) 0.17439(17) 0.65970(9)
N15 N 0.00367(18) 0.31953(18) 0.64364(11)
N16 N 0.08763(18) 0.30488(18) 0.61981(11)
N17 N 0.13581(16) 0.15065(16) 0.54291(9)
N18 N 0.21734(17) 0.13779(16) 0.51598(9)
N19 N 0.28245(14) 0.17174(15) 0.59281(8)
N20 N 0.23501(14) 0.20291(14) 0.69078(8)
N21 N 0.30918(13) 0.21939(14) 0.76511(8)
N22 N 0.47368(14) 0.24046(15) 0.79026(8)
N23 N 0.55022(15) 0.27811(17) 0.86259(9)
N24 N 0.46902(15) 0.27715(16) 0.88934(9)
N25 N 0.29934(14) 0.37465(16) 0.84619(9)
N26 N 0.22354(15) 0.38798(16) 0.87786(9)
N27 N 0.24224(13) 0.24249(16) 0.89349(8)
N28 N 0.35265(14) 0.10539(15) 0.86691(8)
N29 N 0.33185(14) -0.03610(15) 0.86695(8)
N30 N 0.22655(14) -0.12981(16) 0.92287(8)
N31 N 0.21697(15) -0.27050(16) 0.94745(9)
N32 N 0.29756(15) -0.28812(16) 0.91993(9)
C1 C 0.4068(2) -0.1096(2) 1.01073(13)
H1 H 0.3601 -0.0721 0.9940
H2 H 0.4317 -0.0800 1.0391
H3 H 0.3818 -0.1602 1.0244
C2 C 0.7063(2) -0.1631(2) 0.90880(14)
H4 H 0.7368 -0.1198 0.9258
H5 H 0.7063 -0.1525 0.8714
H6 H 0.7370 -0.2190 0.9163
C3 C 0.2569(2) -0.4163(2) 0.48157(13)
H7 H 0.2831 -0.3747 0.4592
H8 H 0.2316 -0.4579 0.4602
H9 H 0.3028 -0.4451 0.5037
C4 C -0.04246(19) -0.3043(2) 0.56742(12)
H10 H -0.0584 -0.3459 0.5935
H11 H -0.0786 -0.3083 0.5366
H12 H -0.0532 -0.2473 0.5815
C5 C 0.4791(2) -0.1352(2) 0.97164(12)
C6 C 0.5711(2) -0.1248(2) 0.97314(13)
H13 H 0.6002 -0.0984 0.9998
C7 C 0.6106(2) -0.1598(2) 0.92892(13)
C8 C 0.54080(18) -0.2330(2) 0.85305(11)
C9 C 0.61308(19) -0.2819(2) 0.83177(13)
H14 H 0.6689 -0.2881 0.8483
C10 C 0.5999(2) -0.3216(2) 0.78497(13)
H15 H 0.6474 -0.3562 0.7697
C11 C 0.51716(18) -0.3108(2) 0.76031(12)
H16 H 0.5086 -0.3369 0.7283
C12 C 0.44745(17) -0.26043(18) 0.78433(11)
C13 C 0.35391(16) -0.24326(17) 0.76544(10)
C14 C 0.21078(16) -0.21128(17) 0.77771(10)
C15 C 0.31094(16) -0.25129(18) 0.71813(10)
C16 C 0.33801(17) -0.27129(18) 0.66353(10)
C17 C 0.42317(18) -0.2730(2) 0.64099(11)
H17 H 0.4722 -0.2612 0.6611
C18 C 0.4348(2) -0.2922(2) 0.58863(12)
H18 H 0.4922 -0.2937 0.5734
C19 C 0.3630(2) -0.3093(2) 0.55840(12)
H19 H 0.3701 -0.3219 0.5228
C20 C 0.27992(19) -0.30708(19) 0.58321(11)
C21 C 0.1845(2) -0.3717(2) 0.51499(11)
C22 C 0.0932(2) -0.3701(2) 0.51164(12)
H20 H 0.0620 -0.3967 0.4860
C23 C 0.0543(2) -0.3218(2) 0.55309(11)
C24 C 0.12109(16) -0.18948(18) 0.80184(10)
C25 C 0.0805(2) -0.1068(2) 0.80090(12)
H21 H 0.1119 -0.0624 0.7875
C26 C -0.0071(2) -0.0886(3) 0.81974(14)
H22 H -0.0341 -0.0322 0.8187
C27 C -0.0536(2) -0.1526(4) 0.83964(15)
H23 H -0.1121 -0.1400 0.8526
C28 C -0.0146(3) -0.2355(3) 0.84065(15)
H24 H -0.0465 -0.2799 0.8539
C29 C 0.0727(2) -0.2528(2) 0.82178(13)
H25 H 0.0992 -0.3094 0.8227
C30 C 0.1899(2) -0.4743(2) 0.69383(14)
H26 H 0.1958 -0.4763 0.6561
H27 H 0.1984 -0.5318 0.7084
H28 H 0.2346 -0.4405 0.7076
C31 C -0.1346(2) -0.4117(2) 0.76329(14)
H29 H -0.1791 -0.4172 0.7368
H30 H -0.1504 -0.3600 0.7827
H31 H -0.1323 -0.4608 0.7870
C32 C -0.1268(3) 0.4359(2) 0.64949(18)
H32 H -0.1279 0.4447 0.6869
H33 H -0.1684 0.3949 0.6410
H34 H -0.1440 0.4898 0.6315
C33 C 0.1875(3) 0.3863(2) 0.56541(16)
H35 H 0.2375 0.3595 0.5853
H36 H 0.1952 0.4463 0.5595
H37 H 0.1850 0.3584 0.5321
C34 C 0.0975(2) -0.4340(2) 0.70842(13)
C35 C 0.0276(2) -0.4682(2) 0.73644(13)
H38 H 0.0298 -0.5232 0.7517
C36 C -0.0441(2) -0.4074(2) 0.73756(12)
C37 C -0.05944(19) -0.2553(2) 0.70045(11)
C38 C -0.15142(19) -0.2345(2) 0.70140(13)
H39 H -0.1909 -0.2755 0.7100
C39 C -0.1827(2) -0.1511(3) 0.68917(13)
H40 H -0.2447 -0.1356 0.6885
C40 C -0.12469(18) -0.0899(2) 0.67786(11)
H41 H -0.1463 -0.0327 0.6708
C41 C -0.03243(18) -0.1160(2) 0.67728(11)
C42 C 0.03935(17) -0.0621(2) 0.66336(10)
C43 C 0.17264(17) -0.03978(19) 0.63482(10)
C44 C 0.04832(17) 0.0243(2) 0.66530(10)
C45 C -0.01009(17) 0.1011(2) 0.68161(11)
C46 C -0.07999(18) 0.1031(2) 0.71833(12)
H42 H -0.0970 0.0524 0.7339
C47 C -0.1236(2) 0.1819(3) 0.73120(14)
H43 H -0.1698 0.1848 0.7564
C48 C -0.0998(2) 0.2560(3) 0.70739(14)
H44 H -0.1301 0.3093 0.7156
C49 C -0.0298(2) 0.2498(2) 0.67091(13)
C50 C -0.0329(3) 0.4021(2) 0.63230(17)
C51 C 0.0296(3) 0.4391(3) 0.60287(17)
H45 H 0.0244 0.4957 0.5900
C52 C 0.1026(3) 0.3783(3) 0.59518(15)
C53 C 0.26471(18) -0.05052(18) 0.61258(11)
C54 C 0.33498(19) -0.0192(2) 0.63915(14)
H46 H 0.3251 0.0032 0.6727
C55 C 0.4196(2) -0.0212(3) 0.61614(19)
H47 H 0.4663 0.0012 0.6338
C56 C 0.4350(2) -0.0560(3) 0.5673(2)
H48 H 0.4926 -0.0580 0.5522
C57 C 0.3661(3) -0.0881(2) 0.54032(15)
H49 H 0.3767 -0.1110 0.5069
C58 C 0.2811(2) -0.0861(2) 0.56334(12)
H50 H 0.2346 -0.1087 0.5456
C59 C -0.0205(2) 0.1241(2) 0.52780(13)
H51 H -0.0279 0.0880 0.5584
H52 H -0.0552 0.1051 0.4993
H53 H -0.0412 0.1828 0.5358
C60 C 0.2848(2) 0.0673(2) 0.43362(12)
H54 H 0.2675 0.0228 0.4113
H55 H 0.3363 0.0454 0.4540
H56 H 0.3000 0.1155 0.4123
C61 C 0.7026(2) 0.3377(3) 0.87154(15)
H57 H 0.7266 0.3785 0.8941
H58 H 0.7001 0.3603 0.8360
H59 H 0.7409 0.2844 0.8726
C62 C 0.4034(2) 0.3348(2) 0.97265(11)
H60 H 0.3675 0.3878 0.9641
H61 H 0.4280 0.3382 1.0073
H62 H 0.3662 0.2878 0.9718
C63 C 0.0768(2) 0.1183(2) 0.51213(13)
C64 C 0.1195(3) 0.0841(2) 0.46738(13)
H63 H 0.0918 0.0577 0.4402
C65 C 0.2083(2) 0.0956(2) 0.46978(12)
C66 C 0.2938(2) 0.16424(19) 0.54111(11)
C67 C 0.3705(2) 0.1849(2) 0.51461(12)
H64 H 0.3760 0.1811 0.4781
C68 C 0.4380(2) 0.2113(2) 0.54458(12)
H65 H 0.4912 0.2249 0.5282
C69 C 0.42917(19) 0.2181(2) 0.59808(11)
H66 H 0.4756 0.2367 0.6179
C70 C 0.35031(18) 0.19711(18) 0.62235(11)
C71 C 0.32624(17) 0.20238(18) 0.67824(10)
C72 C 0.22946(17) 0.21445(17) 0.74257(10)
C73 C 0.37203(17) 0.21075(18) 0.72479(10)
C74 C 0.46702(17) 0.21091(19) 0.74032(10)
C75 C 0.54386(18) 0.1837(2) 0.71202(12)
H67 H 0.5398 0.1618 0.6783
C76 C 0.6268(2) 0.1893(2) 0.73455(13)
H68 H 0.6792 0.1718 0.7156
C77 C 0.6333(2) 0.2205(3) 0.78456(13)
H69 H 0.6892 0.2244 0.7999
C78 C 0.55495(18) 0.2454(2) 0.81085(11)
C79 C 0.6095(2) 0.3222(2) 0.89003(13)
C80 C 0.5644(2) 0.3486(2) 0.93450(13)
H70 H 0.5869 0.3802 0.9612
C81 C 0.4788(2) 0.3201(2) 0.93323(12)
C82 C 0.14489(17) 0.22329(19) 0.77393(10)
C83 C 0.11135(19) 0.1538(2) 0.79803(12)
H71 H 0.1395 0.0988 0.7921
C84 C 0.0367(2) 0.1636(3) 0.83091(14)
H72 H 0.0146 0.1154 0.8467
C85 C -0.0048(2) 0.2437(3) 0.84025(12)
H73 H -0.0552 0.2503 0.8625
C86 C 0.0274(2) 0.3136(3) 0.81719(14)
H74 H -0.0006 0.3684 0.8239
C87 C 0.10188(19) 0.3039(2) 0.78372(12)
H75 H 0.1231 0.3524 0.7677
C88 C 0.3836(2) 0.4584(2) 0.78368(13)
H76 H 0.4396 0.4445 0.8019
H77 H 0.3806 0.5168 0.7705
H78 H 0.3804 0.4200 0.7547
C89 C 0.0969(2) 0.5042(2) 0.89810(14)
H79 H 0.0749 0.5585 0.8822
H80 H 0.1078 0.5120 0.9349
H81 H 0.0526 0.4638 0.8944
C90 C 0.1191(2) -0.3414(2) 1.01474(13)
H82 H 0.0655 -0.3438 0.9943
H83 H 0.1133 -0.2901 1.0355
H84 H 0.1272 -0.3912 1.0377
C91 C 0.4146(2) -0.4089(2) 0.91141(13)
H85 H 0.4542 -0.3651 0.9036
H86 H 0.4031 -0.4386 0.8797
H87 H 0.4425 -0.4494 0.9368
C92 C 0.3062(2) 0.4488(2) 0.82095(13)
C93 C 0.2360(2) 0.5095(2) 0.83582(14)
H88 H 0.2268 0.5664 0.8237
C94 C 0.1831(2) 0.4703(2) 0.87129(13)
C95 C 0.20148(17) 0.3171(2) 0.90929(11)
C96 C 0.14644(19) 0.3240(2) 0.95358(12)
H89 H 0.1182 0.3770 0.9640
C97 C 0.13500(18) 0.2498(2) 0.98156(12)
H90 H 0.1004 0.2527 1.0124
C98 C 0.17400(18) 0.1708(2) 0.96476(11)
H91 H 0.1645 0.1204 0.9833
C99 C 0.22746(16) 0.16853(19) 0.91980(10)
C100 C 0.27622(17) 0.09258(19) 0.89645(10)
C101 C 0.38294(17) 0.02633(19) 0.85066(10)
C102 C 0.26322(17) 0.00671(19) 0.89577(10)
C103 C 0.19556(17) -0.04587(19) 0.91888(10)
C104 C 0.10772(17) -0.0179(2) 0.93266(11)
H92 H 0.0863 0.0401 0.9292
C105 C 0.05242(19) -0.0776(2) 0.95172(12)
H93 H -0.0075 -0.0601 0.9604
C106 C 0.08469(19) -0.1622(2) 0.95793(12)
H94 H 0.0480 -0.2027 0.9715
C107 C 0.17373(19) -0.1861(2) 0.94349(11)
C108 C 0.1990(2) -0.3399(2) 0.97865(12)
C109 C 0.2677(2) -0.4021(2) 0.96961(13)
H95 H 0.2740 -0.4573 0.9846
C110 C 0.32697(19) -0.3679(2) 0.93364(12)
C111 C 0.46713(19) 0.00646(19) 0.81957(11)
C112 C 0.4677(2) -0.0417(2) 0.77462(13)
H96 H 0.4139 -0.0586 0.7619
C113 C 0.5487(4) -0.0651(3) 0.74817(18)
H97 H 0.5498 -0.0977 0.7178
C114 C 0.6271(4) -0.0391(4) 0.7679(2)
H98 H 0.6815 -0.0549 0.7504
C115 C 0.6278(3) 0.0086(3) 0.8116(2)
H99 H 0.6819 0.0256 0.8240
C116 C 0.5483(2) 0.0317(2) 0.83761(14)
H100 H 0.5484 0.0648 0.8678
B1? B 0.8166(8) 0.0797(10) 0.9030(5)
F1? F 0.8319(12) 0.0059(11) 0.9306(8)
F2? F 0.8612(14) 0.1415(11) 0.9219(4)
F3? F 0.8378(12) 0.0560(12) 0.8535(6)
F4? F 0.7281(7) 0.1056(11) 0.9002(4)
B3? B 0.7242(8) 0.1905(9) 0.5932(4)
F9? F 0.7752(8) 0.1261(8) 0.6197(5)
F10? F 0.7098(13) 0.2592(10) 0.6221(6)
F11? F 0.6421(5) 0.1563(12) 0.5946(5)
F12? F 0.7408(11) 0.1965(9) 0.5418(3)
B5? B 0.6923(6) 0.6593(7) 0.6132(4)
F17? F 0.6454(7) 0.7263(8) 0.6354(6)
F18? F 0.6461(11) 0.6048(11) 0.5913(7)
F19? F 0.7496(6) 0.6972(10) 0.5797(3)
F20? F 0.7363(10) 0.6176(5) 0.6506(5)
B7? B 0.8375(13) 0.5625(12) 0.9128(7)
F25? F 0.8253(17) 0.5430(9) 0.9634(5)
F26? F 0.8766(11) 0.5026(13) 0.8820(8)
F27? F 0.7540(13) 0.5820(17) 0.8934(10)
F28? F 0.8809(15) 0.6322(10) 0.9088(8)
loop_
_geom_bond_atom_site_label_1
_geom_bond_atom_site_label_2
_geom_bond_site_symmetry_1
_geom_bond_site_symmetry_2
Fe1 N1 1_555 1_555
Fe2 N5 1_555 1_555
Fe3 N13 1_555 1_555
Fe4 N21 1_555 1_555
N1 N2 1_555 1_555
N2 C7 1_555 1_555
N3 Fe1 1_555 1_555
N4 Fe1 1_555 1_555
N5 C14 1_555 1_555
N6 Fe2 1_555 1_555
N7 N8 1_555 1_555
N8 Fe2 1_555 1_555
N9 Fe2 1_555 1_555
N10 N9 1_555 1_555
N11 Fe2 1_555 1_555
N12 Fe2 1_555 1_555
N13 C43 1_555 1_555
N14 Fe3 1_555 1_555
N15 N16 1_555 1_555
N16 Fe3 1_555 1_555
N17 Fe3 1_555 1_555
N18 N17 1_555 1_555
N19 Fe3 1_555 1_555
N20 Fe3 1_555 1_555
N21 C72 1_555 1_555
N22 Fe4 1_555 1_555
N23 N24 1_555 1_555
N24 Fe4 1_555 1_555
N25 Fe4 1_555 1_555
N26 N25 1_555 1_555
N27 Fe4 1_555 1_555
N28 Fe4 1_555 1_555
N29 Fe1 1_555 1_555
N30 Fe1 1_555 1_555
N31 N32 1_555 1_555
N32 Fe1 1_555 1_555
C1 H1 1_555 1_555
H2 C1 1_555 1_555
H3 C1 1_555 1_555
C2 H4 1_555 1_555
H5 C2 1_555 1_555
H6 C2 1_555 1_555
C3 H7 1_555 1_555
H8 C3 1_555 1_555
H9 C3 1_555 1_555
C4 H10 1_555 1_555
H11 C4 1_555 1_555
H12 C4 1_555 1_555
C5 N1 1_555 1_555
C6 C5 1_555 1_555
H13 C6 1_555 1_555
C7 C2 1_555 1_555
C8 N2 1_555 1_555
C9 C8 1_555 1_555
H14 C9 1_555 1_555
C10 C9 1_555 1_555
H15 C10 1_555 1_555
C11 C10 1_555 1_555
H16 C11 1_555 1_555
C12 N3 1_555 1_555
C13 N4 1_555 1_555
C14 N4 1_555 1_555
C15 N5 1_555 1_555
C16 N6 1_555 1_555
C17 C16 1_555 1_555
H17 C17 1_555 1_555
C18 C17 1_555 1_555
H18 C18 1_555 1_555
C19 C18 1_555 1_555
H19 C19 1_555 1_555
C20 N6 1_555 1_555
C21 N7 1_555 1_555
C22 C21 1_555 1_555
H20 C22 1_555 1_555
C23 N8 1_555 1_555
C24 C14 1_555 1_555
C25 C24 1_555 1_555
H21 C25 1_555 1_555
C26 C25 1_555 1_555
H22 C26 1_555 1_555
C27 C26 1_555 1_555
H23 C27 1_555 1_555
C28 C27 1_555 1_555
H24 C28 1_555 1_555
C29 C24 1_555 1_555
H25 C29 1_555 1_555
C30 H26 1_555 1_555
H27 C30 1_555 1_555
H28 C30 1_555 1_555
C31 H29 1_555 1_555
H30 C31 1_555 1_555
H31 C31 1_555 1_555
C32 H32 1_555 1_555
H33 C32 1_555 1_555
H34 C32 1_555 1_555
C33 H35 1_555 1_555
H36 C33 1_555 1_555
H37 C33 1_555 1_555
C34 N9 1_555 1_555
C35 C34 1_555 1_555
H38 C35 1_555 1_555
C36 N10 1_555 1_555
C37 N10 1_555 1_555
C38 C37 1_555 1_555
H39 C38 1_555 1_555
C39 C38 1_555 1_555
H40 C39 1_555 1_555
C40 C39 1_555 1_555
H41 C40 1_555 1_555
C41 N11 1_555 1_555
C42 N12 1_555 1_555
C43 N12 1_555 1_555
C44 N13 1_555 1_555
C45 N14 1_555 1_555
C46 C45 1_555 1_555
H42 C46 1_555 1_555
C47 C46 1_555 1_555
H43 C47 1_555 1_555
C48 C47 1_555 1_555
H44 C48 1_555 1_555
C49 N14 1_555 1_555
C50 N15 1_555 1_555
C51 C50 1_555 1_555
H45 C51 1_555 1_555
C52 N16 1_555 1_555
C53 C43 1_555 1_555
C54 C53 1_555 1_555
H46 C54 1_555 1_555
C55 C54 1_555 1_555
H47 C55 1_555 1_555
C56 C55 1_555 1_555
H48 C56 1_555 1_555
C57 C56 1_555 1_555
H49 C57 1_555 1_555
C58 C53 1_555 1_555
H50 C58 1_555 1_555
C59 H51 1_555 1_555
H52 C59 1_555 1_555
H53 C59 1_555 1_555
C60 H54 1_555 1_555
H55 C60 1_555 1_555
H56 C60 1_555 1_555
C61 H57 1_555 1_555
H58 C61 1_555 1_555
H59 C61 1_555 1_555
C62 H60 1_555 1_555
H61 C62 1_555 1_555
H62 C62 1_555 1_555
C63 N17 1_555 1_555
C64 C63 1_555 1_555
H63 C64 1_555 1_555
C65 N18 1_555 1_555
C66 N18 1_555 1_555
C67 C66 1_555 1_555
H64 C67 1_555 1_555
C68 C67 1_555 1_555
H65 C68 1_555 1_555
C69 C68 1_555 1_555
H66 C69 1_555 1_555
C70 N19 1_555 1_555
C71 N20 1_555 1_555
C72 N20 1_555 1_555
C73 N21 1_555 1_555
C74 N22 1_555 1_555
C75 C74 1_555 1_555
H67 C75 1_555 1_555
C76 C75 1_555 1_555
H68 C76 1_555 1_555
C77 C76 1_555 1_555
H69 C77 1_555 1_555
C78 N22 1_555 1_555
C79 N23 1_555 1_555
C80 C79 1_555 1_555
H70 C80 1_555 1_555
C81 N24 1_555 1_555
C82 C72 1_555 1_555
C83 C82 1_555 1_555
H71 C83 1_555 1_555
C84 C83 1_555 1_555
H72 C84 1_555 1_555
C85 C84 1_555 1_555
H73 C85 1_555 1_555
C86 C85 1_555 1_555
H74 C86 1_555 1_555
C87 C82 1_555 1_555
H75 C87 1_555 1_555
C88 H76 1_555 1_555
H77 C88 1_555 1_555
H78 C88 1_555 1_555
C89 H79 1_555 1_555
H80 C89 1_555 1_555
H81 C89 1_555 1_555
C90 H82 1_555 1_555
H83 C90 1_555 1_555
H84 C90 1_555 1_555
C91 H85 1_555 1_555
H86 C91 1_555 1_555
H87 C91 1_555 1_555
C92 N25 1_555 1_555
C93 C92 1_555 1_555
H88 C93 1_555 1_555
C94 N26 1_555 1_555
C95 N26 1_555 1_555
C96 C95 1_555 1_555
H89 C96 1_555 1_555
C97 C96 1_555 1_555
H90 C97 1_555 1_555
C98 C97 1_555 1_555
H91 C98 1_555 1_555
C99 N27 1_555 1_555
C100 N28 1_555 1_555
C101 N28 1_555 1_555
C102 N29 1_555 1_555
C103 N30 1_555 1_555
C104 C103 1_555 1_555
H92 C104 1_555 1_555
C105 C104 1_555 1_555
H93 C105 1_555 1_555
C106 C105 1_555 1_555
H94 C106 1_555 1_555
C107 N30 1_555 1_555
C108 N31 1_555 1_555
C109 C108 1_555 1_555
H95 C109 1_555 1_555
C110 N32 1_555 1_555
C111 C101 1_555 1_555
C112 C111 1_555 1_555
H96 C112 1_555 1_555
C113 C112 1_555 1_555
H97 C113 1_555 1_555
C114 C113 1_555 1_555
H98 C114 1_555 1_555
C115 C114 1_555 1_555
H99 C115 1_555 1_555
C116 C111 1_555 1_555
H100 C116 1_555 1_555
B2 F5 1_555 1_555
F6 B2 1_555 1_555
F7 B2 1_555 1_555
F8 B2 1_555 1_555
B4 F13 1_555 1_555
F14 B4 1_555 1_555
F15 B4 1_555 1_555
F16 B4 1_555 1_555
B6 F21 1_555 1_555
F22 B6 1_555 1_555
F23 B6 1_555 1_555
F24 B6 1_555 1_555
B8 F29 1_555 1_555
F30 B8 1_555 1_555
F31 B8 1_555 1_555
F32 B8 1_555 1_555
N3 C8 1_555 1_555
N7 C20 1_555 1_555
N11 C37 1_555 1_555
N15 C49 1_555 1_555
N19 C66 1_555 1_555
N23 C78 1_555 1_555
N27 C95 1_555 1_555
N29 C101 1_555 1_555
N31 C107 1_555 1_555
C1 C5 1_555 1_555
C3 C21 1_555 1_555
C4 C23 1_555 1_555
C6 C7 1_555 1_555
C11 C12 1_555 1_555
C12 C13 1_555 1_555
C13 C15 1_555 1_555
C15 C16 1_555 1_555
C19 C20 1_555 1_555
C22 C23 1_555 1_555
C28 C29 1_555 1_555
C30 C34 1_555 1_555
C31 C36 1_555 1_555
C32 C50 1_555 1_555
C33 C52 1_555 1_555
C35 C36 1_555 1_555
C40 C41 1_555 1_555
C41 C42 1_555 1_555
C42 C44 1_555 1_555
C44 C45 1_555 1_555
C48 C49 1_555 1_555
C51 C52 1_555 1_555
C57 C58 1_555 1_555
C59 C63 1_555 1_555
C60 C65 1_555 1_555
C61 C79 1_555 1_555
C62 C81 1_555 1_555
C64 C65 1_555 1_555
C69 C70 1_555 1_555
C70 C71 1_555 1_555
C71 C73 1_555 1_555
C73 C74 1_555 1_555
C77 C78 1_555 1_555
C80 C81 1_555 1_555
C86 C87 1_555 1_555
C88 C92 1_555 1_555
C89 C94 1_555 1_555
C90 C108 1_555 1_555
C91 C110 1_555 1_555
C93 C94 1_555 1_555
C98 C99 1_555 1_555
C99 C100 1_555 1_555
C100 C102 1_555 1_555
C102 C103 1_555 1_555
C106 C107 1_555 1_555
C109 C110 1_555 1_555
C115 C116 1_555 1_555

#END
