
#######################################################################
#
#                 Cambridge Crystallographic Data Centre
#                                CCDC 
#
#######################################################################
#
# If this CIF has been generated from an entry in the Cambridge 
# Structural Database, then it will include bibliographic, chemical, 
# crystal, experimental, refinement or atomic coordinate data resulting 
# from the CCDC's data processing and validation procedures.
#
#######################################################################

data_SIZKET
_chemical_formula_moiety         
'C116 H100 Fe4 N32 6+,6(B1 F4 1-),6(C1 H3 N1 O2),C4 H10 O1,4(H2 O1)'
_chemical_name_systematic        
'tetrakis(\m~2~-2-Phenyl-4,5-bis(6-(3,5-dimethyl-1H-pyrazol-1-yl)pyridin-2-yl)imidazolato)-di-iron(ii)-di-iron(iii) hexakis(tetrafluoroborate) diethyl ether nitromethane solvate tetrahydrate'
_symmetry_cell_setting           monoclinic
_symmetry_space_group_name_H-M   'C 2/c'
_symmetry_Int_Tables_number      15
_space_group_name_Hall           '-C 2yn'
loop_
_symmetry_equiv_pos_site_id
_symmetry_equiv_pos_as_xyz
1 x,y,z
2 -x,y,1/2-z
3 1/2+x,1/2+y,z
4 1/2-x,1/2+y,1/2-z
5 -x,-y,-z
6 x,-y,1/2+z
7 1/2-x,1/2-y,-z
8 1/2+x,1/2-y,1/2+z
_cell_length_a                   29.931(3)
_cell_length_b                   19.6750(18)
_cell_length_c                   28.022(3)
_cell_angle_alpha                90
_cell_angle_beta                 121.5550(10)
_cell_angle_gamma                90
_cell_volume                     14061.9
_exptl_crystal_colour            'dark red'
_exptl_crystal_description       blocks
_cell_formula_units_Z            4
loop_
_atom_site_label
_atom_site_type_symbol
_atom_site_fract_x
_atom_site_fract_y
_atom_site_fract_z
F1 F 0.05921(11) 0.62481(13) 0.08833(11)
F2 F 0.0646(3) 0.7338(3) 0.1176(3)
F3 F 0.1288(2) 0.6841(5) 0.1117(3)
F4 F 0.1178(3) 0.6622(5) 0.1820(3)
B1 B 0.09151(16) 0.6752(2) 0.12543(19)
F8 F 0.22632(9) 0.41284(13) 0.07987(10)
F9 F 0.15734(9) 0.40072(15) -0.00907(11)
F10 F 0.20991(13) 0.49087(15) 0.01365(12)
F11 F 0.24018(11) 0.38908(18) 0.01170(13)
B2 B 0.20671(16) 0.4242(2) 0.0230(2)
F12 F 0.25623(8) 0.40078(11) 0.38549(8)
F13 F 0.3430(2) 0.4058(5) 0.4526(3)
F14 F 0.2935(3) 0.3153(2) 0.4435(2)
F15 F 0.28230(18) 0.4131(5) 0.4757(2)
B3 B 0.29594(15) 0.3828(2) 0.43892(16)
O1 O 0.05739(14) 0.4510(2) 0.05911(16)
O2 O 0.12078(14) 0.44306(19) 0.14544(16)
N17 N 0.10165(16) 0.4649(2) 0.0969(2)
C59 C 0.1340(2) 0.5087(3) 0.0831(2)
H51 H 0.1230 0.5562 0.0804
H52 H 0.1293 0.4944 0.0472
H53 H 0.1711 0.5045 0.1126
O3 O 0.31609(16) 0.41181(18) 0.25476(17)
O4 O 0.39069(14) 0.4244(2) 0.33383(19)
N18 N 0.34867(17) 0.3975(2) 0.3049(2)
C60 C 0.3331(2) 0.3439(3) 0.3281(2)
H54 H 0.3640 0.3258 0.3617
H55 H 0.3162 0.3075 0.3003
H56 H 0.3084 0.3618 0.3379
O5 O 0.3566(2) 0.7158(3) 0.5572(3)
O6 O 0.3630(3) 0.6539(3) 0.4962(3)
N19 N 0.3399(2) 0.6945(3) 0.5085(3)
C61 C 0.2893(3) 0.7248(4) 0.4676(4)
H57 H 0.2800 0.7121 0.4297
H58 H 0.2917 0.7744 0.4714
H59 H 0.2623 0.7081 0.4745
O7 O 0.0000 0.6416(6) 0.2500
C62 C 0.0345(4) 0.6766(6) 0.3039(6)
H60 H 0.0442 0.7208 0.2949
H61 H 0.0128 0.6870 0.3201
C63 C 0.0816(5) 0.6470(7) 0.3474(4)
H62 H 0.1099 0.6551 0.3402
H63 H 0.0766 0.5979 0.3486
H64 H 0.0908 0.6673 0.3833
C62A C -0.0345(4) 0.6766(6) 0.1961(6)
H60A H -0.0442 0.7208 0.2051
H61A H -0.0128 0.6870 0.1799
C63A C -0.0816(5) 0.6470(7) 0.1526(4)
H62A H -0.1099 0.6551 0.1598
H63A H -0.0766 0.5979 0.1514
H64A H -0.0908 0.6673 0.1167
Fe1 Fe 0.0000 -0.03497(3) 0.2500
Fe2 Fe 0.10070(2) 0.17394(2) 0.17175(2)
Fe3 Fe 0.0000 0.38138(3) 0.2500
N1 N -0.04251(9) -0.10584(13) 0.25734(10)
N2 N -0.08973(9) -0.11680(13) 0.20765(10)
N3 N -0.05884(9) -0.03608(12) 0.17462(10)
N4 N 0.02433(9) 0.03335(12) 0.21778(10)
N5 N 0.06277(9) 0.10470(12) 0.18837(10)
N6 N 0.04033(9) 0.16275(13) 0.09828(10)
N7 N 0.08053(9) 0.23977(13) 0.07309(10)
N8 N 0.11775(9) 0.24004(13) 0.13045(10)
N9 N 0.14538(9) 0.10466(13) 0.16480(10)
N10 N 0.19507(9) 0.10230(13) 0.21239(11)
N11 N 0.16307(9) 0.18423(12) 0.24358(10)
N12 N 0.07748(9) 0.24570(12) 0.20335(10)
N13 N 0.03878(9) 0.31533(12) 0.23364(11)
N14 N 0.06393(10) 0.38180(13) 0.32084(11)
N15 N 0.02234(11) 0.46031(15) 0.34275(13)
N16 N -0.01719(11) 0.45155(14) 0.28756(13)
C1 C -0.04071(12) -0.15182(18) 0.29295(14)
C2 C -0.08562(14) -0.19208(19) 0.26687(15)
H1 H -0.0934 -0.2284 0.2837
C3 C -0.11620(13) -0.17023(17) 0.21330(14)
C4 C -0.09965(11) -0.07578(16) 0.16140(13)
C5 C -0.14530(12) -0.07429(17) 0.10932(13)
H2 H -0.1741 -0.1031 0.1005
C6 C -0.14703(13) -0.02921(18) 0.07092(14)
H3 H -0.1780 -0.0261 0.0349
C7 C -0.10441(12) 0.01206(18) 0.08349(13)
H4 H -0.1062 0.0433 0.0567
C8 C -0.05939(11) 0.00639(16) 0.13603(12)
C9 C -0.00963(11) 0.04266(15) 0.16048(12)
C10 C 0.06725(10) 0.07159(14) 0.23271(12)
C11 C 0.01468(11) 0.08585(15) 0.14236(12)
C12 C 0.00319(11) 0.11614(16) 0.08929(12)
C13 C -0.03653(14) 0.1005(2) 0.03513(14)
H5 H -0.0615 0.0663 0.0284
C14 C -0.03908(14) 0.1356(2) -0.00893(15)
H6 H -0.0666 0.1261 -0.0462
C15 C -0.00183(13) 0.18461(19) 0.00064(14)
H7 H -0.0036 0.2096 -0.0293
C16 C 0.03771(12) 0.19548(16) 0.05526(13)
C17 C 0.09463(12) 0.28349(16) 0.04465(13)
C18 C 0.14089(13) 0.31178(17) 0.08483(14)
H8 H 0.1607 0.3444 0.0787
C19 C 0.15401(12) 0.28414(16) 0.13684(13)
C20 C 0.11299(12) 0.07900(18) 0.28991(13)
C21 C 0.10965(18) 0.1265(2) 0.32639(16)
H9 H 0.0774 0.1493 0.3138
C22 C 0.15114(19) 0.1402(3) 0.37867(19)
H10 H 0.1486 0.1721 0.4026
C23 C 0.19566(18) 0.1065(2) 0.39470(19)
H11 H 0.2247 0.1164 0.4310
C24 C 0.20342(17) 0.0597(2) 0.3644(2)
H12 H 0.2361 0.0371 0.3791
C25 C 0.15879(14) 0.0454(2) 0.30730(17)
H13 H 0.1620 0.0139 0.2836
C26 C 0.00404(14) -0.1550(2) 0.35342(15)
H14 H 0.0059 -0.1121 0.3722
H15 H 0.0371 -0.1623 0.3548
H16 H -0.0019 -0.1925 0.3724
C27 C -0.16848(14) -0.1946(2) 0.16784(15)
H17 H -0.1665 -0.2079 0.1353
H18 H -0.1943 -0.1581 0.1572
H19 H -0.1791 -0.2339 0.1811
C28 C 0.06353(14) 0.29588(19) -0.01658(14)
H20 H 0.0814 0.3296 -0.0265
H21 H 0.0287 0.3129 -0.0273
H22 H 0.0599 0.2533 -0.0365
C29 C 0.20195(13) 0.3003(2) 0.19250(15)
H23 H 0.2249 0.2604 0.2064
H24 H 0.1915 0.3127 0.2192
H25 H 0.2207 0.3384 0.1883
C30 C 0.14473(12) 0.05788(16) 0.13095(14)
C31 C 0.19310(13) 0.0227(2) 0.15698(16)
H26 H 0.2021 -0.0140 0.1415
C32 C 0.22457(13) 0.05149(18) 0.20858(16)
C33 C 0.20626(11) 0.14981(15) 0.25473(13)
C34 C 0.25525(12) 0.16331(17) 0.30170(13)
H27 H 0.2855 0.1389 0.3088
C35 C 0.25815(12) 0.21357(17) 0.33749(14)
H28 H 0.2911 0.2248 0.3696
C36 C 0.21363(12) 0.24786(18) 0.32716(14)
H29 H 0.2159 0.2820 0.3523
C37 C 0.16584(11) 0.23209(16) 0.28002(13)
C38 C 0.11424(11) 0.26225(15) 0.25890(12)
C39 C 0.03357(11) 0.28050(15) 0.18972(12)
C40 C 0.09009(11) 0.30447(15) 0.27825(13)
C41 C 0.10445(12) 0.34213(17) 0.32896(14)
C42 C 0.15115(13) 0.3434(2) 0.38036(15)
H30 H 0.1791 0.3139 0.3876
C43 C 0.15634(14) 0.3883(2) 0.42099(16)
H31 H 0.1887 0.3906 0.4558
C44 C 0.11542(14) 0.4298(2) 0.41178(17)
H32 H 0.1190 0.4614 0.4392
C45 C 0.06889(13) 0.42346(18) 0.36067(16)
C46 C 0.00750(15) 0.5052(2) 0.36942(19)
C47 C -0.04226(16) 0.5252(2) 0.3294(2)
H33 H -0.0634 0.5566 0.3347
C48 C -0.05664(15) 0.49150(19) 0.27916(19)
C49 C -0.01026(12) 0.28559(18) 0.13098(14)
C50 C -0.05607(14) 0.2492(2) 0.10948(17)
H34 H -0.0624 0.2210 0.1328
C51 C -0.09452(16) 0.2553(3) 0.0499(2)
H35 H -0.1261 0.2296 0.0332
C52 C -0.0847(2) 0.2980(3) 0.0185(2)
H36 H -0.1106 0.3025 -0.0202
C53 C -0.04002(18) 0.3348(3) 0.03923(19)
H37 H -0.0345 0.3640 0.0158
C54 C -0.00289(15) 0.3286(2) 0.09517(16)
H38 H 0.0287 0.3539 0.1103
C55 C 0.09782(14) 0.04255(19) 0.07425(14)
H39 H 0.0871 0.0837 0.0512
H40 H 0.0689 0.0269 0.0783
H41 H 0.1068 0.0070 0.0562
C56 C 0.27795(14) 0.0316(2) 0.25345(17)
H42 H 0.2787 0.0256 0.2886
H43 H 0.3028 0.0673 0.2582
H44 H 0.2877 -0.0111 0.2433
C57 C 0.03912(16) 0.5233(2) 0.4293(2)
H45 H 0.0192 0.5545 0.4384
H46 H 0.0716 0.5454 0.4371
H47 H 0.0476 0.4821 0.4520
C58 C -0.10703(16) 0.4959(2) 0.2256(2)
H48 H -0.1268 0.4538 0.2193
H49 H -0.1005 0.5026 0.1950
H50 H -0.1273 0.5344 0.2267
Fe2A Fe -0.10070(2) 0.17394(2) 0.32825(2)
N1A N 0.04251(9) -0.10584(13) 0.24266(10)
N2A N 0.08973(9) -0.11680(13) 0.29235(10)
N3A N 0.05884(9) -0.03608(12) 0.32538(10)
N4A N -0.02433(9) 0.03335(12) 0.28222(10)
N5A N -0.06277(9) 0.10470(12) 0.31163(10)
N6A N -0.04033(9) 0.16275(13) 0.40172(10)
N7A N -0.08053(9) 0.23977(13) 0.42691(10)
N8A N -0.11775(9) 0.24004(13) 0.36955(10)
N9A N -0.14538(9) 0.10466(13) 0.33520(10)
N10A N -0.19507(9) 0.10230(13) 0.28761(11)
N11A N -0.16307(9) 0.18423(12) 0.25642(10)
N12A N -0.07748(9) 0.24570(12) 0.29665(10)
N13A N -0.03878(9) 0.31533(12) 0.26636(11)
N14A N -0.06393(10) 0.38180(13) 0.17916(11)
N15A N -0.02234(11) 0.46031(15) 0.15725(13)
N16A N 0.01719(11) 0.45155(14) 0.21244(13)
C1A C 0.04071(12) -0.15182(18) 0.20705(14)
C2A C 0.08562(14) -0.19208(19) 0.23313(15)
H1A H 0.0934 -0.2284 0.2163
C3A C 0.11620(13) -0.17023(17) 0.28670(14)
C4A C 0.09965(11) -0.07578(16) 0.33860(13)
C5A C 0.14530(12) -0.07429(17) 0.39068(13)
H2A H 0.1741 -0.1031 0.3995
C6A C 0.14703(13) -0.02921(18) 0.42908(14)
H3A H 0.1780 -0.0261 0.4651
C7A C 0.10441(12) 0.01206(18) 0.41651(13)
H4A H 0.1062 0.0433 0.4433
C8A C 0.05939(11) 0.00639(16) 0.36397(12)
C9A C 0.00963(11) 0.04266(15) 0.33952(12)
C10A C -0.06725(10) 0.07159(14) 0.26729(12)
C11A C -0.01468(11) 0.08585(15) 0.35764(12)
C12A C -0.00319(11) 0.11614(16) 0.41071(12)
C13A C 0.03653(14) 0.1005(2) 0.46487(14)
H5A H 0.0615 0.0663 0.4716
C14A C 0.03908(14) 0.1356(2) 0.50893(15)
H6A H 0.0666 0.1261 0.5462
C15A C 0.00183(13) 0.18461(19) 0.49936(14)
H7A H 0.0036 0.2096 0.5293
C16A C -0.03771(12) 0.19548(16) 0.44474(13)
C17A C -0.09463(12) 0.28349(16) 0.45535(13)
C18A C -0.14089(13) 0.31178(17) 0.41517(14)
H8A H -0.1607 0.3444 0.4213
C19A C -0.15401(12) 0.28414(16) 0.36316(13)
C20A C -0.11299(12) 0.07900(18) 0.21009(13)
C21A C -0.10965(18) 0.1265(2) 0.17361(16)
H9A H -0.0774 0.1493 0.1862
C22A C -0.15114(19) 0.1402(3) 0.12133(19)
H10A H -0.1486 0.1721 0.0974
C23A C -0.19566(18) 0.1065(2) 0.10530(19)
H11A H -0.2247 0.1164 0.0690
C24A C -0.20342(17) 0.0597(2) 0.1356(2)
H12A H -0.2361 0.0371 0.1209
C25A C -0.15879(14) 0.0454(2) 0.19270(17)
H13A H -0.1620 0.0139 0.2164
C26A C -0.00404(14) -0.1550(2) 0.14658(15)
H14A H -0.0059 -0.1121 0.1278
H15A H -0.0371 -0.1623 0.1452
H16A H 0.0019 -0.1925 0.1276
C27A C 0.16848(14) -0.1946(2) 0.33216(15)
H17A H 0.1665 -0.2079 0.3647
H18A H 0.1943 -0.1581 0.3428
H19A H 0.1791 -0.2339 0.3189
C28A C -0.06353(14) 0.29588(19) 0.51658(14)
H20A H -0.0814 0.3296 0.5265
H21A H -0.0287 0.3129 0.5273
H22A H -0.0599 0.2533 0.5365
C29A C -0.20195(13) 0.3003(2) 0.30750(15)
H23A H -0.2249 0.2604 0.2936
H24A H -0.1915 0.3127 0.2808
H25A H -0.2207 0.3384 0.3117
C30A C -0.14473(12) 0.05788(16) 0.36905(14)
C31A C -0.19310(13) 0.0227(2) 0.34302(16)
H26A H -0.2021 -0.0140 0.3585
C32A C -0.22457(13) 0.05149(18) 0.29142(16)
C33A C -0.20626(11) 0.14981(15) 0.24527(13)
C34A C -0.25525(12) 0.16331(17) 0.19830(13)
H27A H -0.2855 0.1389 0.1912
C35A C -0.25815(12) 0.21357(17) 0.16251(14)
H28A H -0.2911 0.2248 0.1304
C36A C -0.21363(12) 0.24786(18) 0.17284(14)
H29A H -0.2159 0.2820 0.1477
C37A C -0.16584(11) 0.23209(16) 0.21998(13)
C38A C -0.11424(11) 0.26225(15) 0.24110(12)
C39A C -0.03357(11) 0.28050(15) 0.31028(12)
C40A C -0.09009(11) 0.30447(15) 0.22175(13)
C41A C -0.10445(12) 0.34213(17) 0.17104(14)
C42A C -0.15115(13) 0.3434(2) 0.11964(15)
H30A H -0.1791 0.3139 0.1124
C43A C -0.15634(14) 0.3883(2) 0.07901(16)
H31A H -0.1887 0.3906 0.0442
C44A C -0.11542(14) 0.4298(2) 0.08822(17)
H32A H -0.1190 0.4614 0.0608
C45A C -0.06889(13) 0.42346(18) 0.13933(16)
C46A C -0.00750(15) 0.5052(2) 0.13058(19)
C47A C 0.04226(16) 0.5252(2) 0.1706(2)
H33A H 0.0634 0.5566 0.1653
C48A C 0.05664(15) 0.49150(19) 0.22084(19)
C49A C 0.01026(12) 0.28559(18) 0.36902(14)
C50A C 0.05607(14) 0.2492(2) 0.39052(17)
H34A H 0.0624 0.2210 0.3672
C51A C 0.09452(16) 0.2553(3) 0.4501(2)
H35A H 0.1261 0.2296 0.4668
C52A C 0.0847(2) 0.2980(3) 0.4815(2)
H36A H 0.1106 0.3025 0.5202
C53A C 0.04002(18) 0.3348(3) 0.46077(19)
H37A H 0.0345 0.3640 0.4842
C54A C 0.00289(15) 0.3286(2) 0.40483(16)
H38A H -0.0287 0.3539 0.3897
C55A C -0.09782(14) 0.04255(19) 0.42575(14)
H39A H -0.0871 0.0837 0.4488
H40A H -0.0689 0.0269 0.4217
H41A H -0.1068 0.0070 0.4438
C56A C -0.27795(14) 0.0316(2) 0.24655(17)
H42A H -0.2787 0.0256 0.2114
H43A H -0.3028 0.0673 0.2418
H44A H -0.2877 -0.0111 0.2567
C57A C -0.03912(16) 0.5233(2) 0.0707(2)
H45A H -0.0192 0.5545 0.0616
H46A H -0.0716 0.5454 0.0629
H47A H -0.0476 0.4821 0.0480
C58A C 0.10703(16) 0.4959(2) 0.2744(2)
H48A H 0.1268 0.4538 0.2807
H49A H 0.1005 0.5026 0.3050
H50A H 0.1273 0.5344 0.2733
loop_
_geom_bond_atom_site_label_1
_geom_bond_atom_site_label_2
_geom_bond_site_symmetry_1
_geom_bond_site_symmetry_2
Fe1 N1 1_555 1_555
Fe2 N5 1_555 1_555
Fe3 N13 1_555 1_555
N1 N2 1_555 1_555
N2 C3 1_555 1_555
N3 Fe1 1_555 1_555
N4 Fe1 1_555 1_555
N5 C10 1_555 1_555
N6 Fe2 1_555 1_555
N7 N8 1_555 1_555
N8 Fe2 1_555 1_555
N9 Fe2 1_555 1_555
N10 N9 1_555 1_555
N11 Fe2 1_555 1_555
N12 Fe2 1_555 1_555
N13 C39 1_555 1_555
N14 Fe3 1_555 1_555
N15 N16 1_555 1_555
N16 Fe3 1_555 1_555
C1 N1 1_555 1_555
C2 C1 1_555 1_555
H1 C2 1_555 1_555
C3 C2 1_555 1_555
C4 N2 1_555 1_555
C5 C4 1_555 1_555
H2 C5 1_555 1_555
C6 C5 1_555 1_555
H3 C6 1_555 1_555
C7 C6 1_555 1_555
H4 C7 1_555 1_555
C8 N3 1_555 1_555
C9 N4 1_555 1_555
C10 N4 1_555 1_555
C11 N5 1_555 1_555
C12 N6 1_555 1_555
C13 C12 1_555 1_555
H5 C13 1_555 1_555
C14 C13 1_555 1_555
H6 C14 1_555 1_555
C15 C14 1_555 1_555
H7 C15 1_555 1_555
C16 N6 1_555 1_555
C17 N7 1_555 1_555
C18 C17 1_555 1_555
H8 C18 1_555 1_555
C19 N8 1_555 1_555
C20 C10 1_555 1_555
C21 C20 1_555 1_555
H9 C21 1_555 1_555
C22 C21 1_555 1_555
H10 C22 1_555 1_555
C23 C22 1_555 1_555
H11 C23 1_555 1_555
C24 C23 1_555 1_555
H12 C24 1_555 1_555
C25 C20 1_555 1_555
H13 C25 1_555 1_555
C26 C1 1_555 1_555
H14 C26 1_555 1_555
H15 C26 1_555 1_555
H16 C26 1_555 1_555
C27 C3 1_555 1_555
H17 C27 1_555 1_555
H18 C27 1_555 1_555
H19 C27 1_555 1_555
C28 C17 1_555 1_555
H20 C28 1_555 1_555
H21 C28 1_555 1_555
H22 C28 1_555 1_555
C29 C19 1_555 1_555
H23 C29 1_555 1_555
H24 C29 1_555 1_555
H25 C29 1_555 1_555
C30 N9 1_555 1_555
C31 C30 1_555 1_555
H26 C31 1_555 1_555
C32 N10 1_555 1_555
C33 N10 1_555 1_555
C34 C33 1_555 1_555
H27 C34 1_555 1_555
C35 C34 1_555 1_555
H28 C35 1_555 1_555
C36 C35 1_555 1_555
H29 C36 1_555 1_555
C37 N11 1_555 1_555
C38 N12 1_555 1_555
C39 N12 1_555 1_555
C40 N13 1_555 1_555
C41 N14 1_555 1_555
C42 C41 1_555 1_555
H30 C42 1_555 1_555
C43 C42 1_555 1_555
H31 C43 1_555 1_555
C44 C43 1_555 1_555
H32 C44 1_555 1_555
C45 N14 1_555 1_555
C46 N15 1_555 1_555
C47 C46 1_555 1_555
H33 C47 1_555 1_555
C48 N16 1_555 1_555
C49 C39 1_555 1_555
C50 C49 1_555 1_555
H34 C50 1_555 1_555
C51 C50 1_555 1_555
H35 C51 1_555 1_555
C52 C51 1_555 1_555
H36 C52 1_555 1_555
C53 C52 1_555 1_555
H37 C53 1_555 1_555
C54 C49 1_555 1_555
H38 C54 1_555 1_555
C55 C30 1_555 1_555
H39 C55 1_555 1_555
H40 C55 1_555 1_555
H41 C55 1_555 1_555
C56 C32 1_555 1_555
H42 C56 1_555 1_555
H43 C56 1_555 1_555
H44 C56 1_555 1_555
C57 C46 1_555 1_555
H45 C57 1_555 1_555
H46 C57 1_555 1_555
H47 C57 1_555 1_555
C58 C48 1_555 1_555
H48 C58 1_555 1_555
H49 C58 1_555 1_555
H50 C58 1_555 1_555
F1 B1 1_555 1_555
F2 B1 1_555 1_555
F3 B1 1_555 1_555
F4 B1 1_555 1_555
F8 B2 1_555 1_555
F9 B2 1_555 1_555
F10 B2 1_555 1_555
F11 B2 1_555 1_555
F12 B3 1_555 1_555
F13 B3 1_555 1_555
F14 B3 1_555 1_555
F15 B3 1_555 1_555
O1 N17 1_555 1_555
O2 N17 1_555 1_555
N17 C59 1_555 1_555
C59 H51 1_555 1_555
H52 C59 1_555 1_555
H53 C59 1_555 1_555
O3 N18 1_555 1_555
O4 N18 1_555 1_555
N18 C60 1_555 1_555
C60 H54 1_555 1_555
H55 C60 1_555 1_555
H56 C60 1_555 1_555
O5 N19 1_555 1_555
O6 N19 1_555 1_555
N19 C61 1_555 1_555
C61 H57 1_555 1_555
H58 C61 1_555 1_555
H59 C61 1_555 1_555
O7 C62 1_555 1_555
C62 H60 1_555 1_555
H61 C62 1_555 1_555
C63 C62 1_555 1_555
H62 C63 1_555 1_555
H63 C63 1_555 1_555
H64 C63 1_555 1_555
Fe2A N5A 1_555 1_555
N1A Fe1 1_555 1_555
N2A N1A 1_555 1_555
N3A Fe1 1_555 1_555
N4A Fe1 1_555 1_555
N5A C10A 1_555 1_555
N6A Fe2A 1_555 1_555
N7A N8A 1_555 1_555
N8A Fe2A 1_555 1_555
N9A Fe2A 1_555 1_555
N10A N9A 1_555 1_555
N11A Fe2A 1_555 1_555
N12A Fe2A 1_555 1_555
N13A Fe3 1_555 1_555
N14A Fe3 1_555 1_555
N15A N16A 1_555 1_555
N16A Fe3 1_555 1_555
C1A N1A 1_555 1_555
C2A C1A 1_555 1_555
H1A C2A 1_555 1_555
C3A N2A 1_555 1_555
C4A N2A 1_555 1_555
C5A C4A 1_555 1_555
H2A C5A 1_555 1_555
C6A C5A 1_555 1_555
H3A C6A 1_555 1_555
C7A C6A 1_555 1_555
H4A C7A 1_555 1_555
C8A N3A 1_555 1_555
C9A N4A 1_555 1_555
C10A N4A 1_555 1_555
C11A N5A 1_555 1_555
C12A N6A 1_555 1_555
C13A C12A 1_555 1_555
H5A C13A 1_555 1_555
C14A C13A 1_555 1_555
H6A C14A 1_555 1_555
C15A C14A 1_555 1_555
H7A C15A 1_555 1_555
C16A N6A 1_555 1_555
C17A N7A 1_555 1_555
C18A C17A 1_555 1_555
H8A C18A 1_555 1_555
C19A N8A 1_555 1_555
C20A C10A 1_555 1_555
C21A C20A 1_555 1_555
H9A C21A 1_555 1_555
C22A C21A 1_555 1_555
H10A C22A 1_555 1_555
C23A C22A 1_555 1_555
H11A C23A 1_555 1_555
C24A C23A 1_555 1_555
H12A C24A 1_555 1_555
C25A C20A 1_555 1_555
H13A C25A 1_555 1_555
C26A C1A 1_555 1_555
H14A C26A 1_555 1_555
H15A C26A 1_555 1_555
H16A C26A 1_555 1_555
C27A C3A 1_555 1_555
H17A C27A 1_555 1_555
H18A C27A 1_555 1_555
H19A C27A 1_555 1_555
C28A C17A 1_555 1_555
H20A C28A 1_555 1_555
H21A C28A 1_555 1_555
H22A C28A 1_555 1_555
C29A C19A 1_555 1_555
H23A C29A 1_555 1_555
H24A C29A 1_555 1_555
H25A C29A 1_555 1_555
C30A N9A 1_555 1_555
C31A C30A 1_555 1_555
H26A C31A 1_555 1_555
C32A N10A 1_555 1_555
C33A N10A 1_555 1_555
C34A C33A 1_555 1_555
H27A C34A 1_555 1_555
C35A C34A 1_555 1_555
H28A C35A 1_555 1_555
C36A C35A 1_555 1_555
H29A C36A 1_555 1_555
C37A N11A 1_555 1_555
C38A N12A 1_555 1_555
C39A N12A 1_555 1_555
C40A N13A 1_555 1_555
C41A N14A 1_555 1_555
C42A C41A 1_555 1_555
H30A C42A 1_555 1_555
C43A C42A 1_555 1_555
H31A C43A 1_555 1_555
C44A C43A 1_555 1_555
H32A C44A 1_555 1_555
C45A N14A 1_555 1_555
C46A N15A 1_555 1_555
C47A C46A 1_555 1_555
H33A C47A 1_555 1_555
C48A N16A 1_555 1_555
C49A C39A 1_555 1_555
C50A C49A 1_555 1_555
H34A C50A 1_555 1_555
C51A C50A 1_555 1_555
H35A C51A 1_555 1_555
C52A C51A 1_555 1_555
H36A C52A 1_555 1_555
C53A C52A 1_555 1_555
H37A C53A 1_555 1_555
C54A C49A 1_555 1_555
H38A C54A 1_555 1_555
C55A C30A 1_555 1_555
H39A C55A 1_555 1_555
H40A C55A 1_555 1_555
H41A C55A 1_555 1_555
C56A C32A 1_555 1_555
H42A C56A 1_555 1_555
H43A C56A 1_555 1_555
H44A C56A 1_555 1_555
C57A C46A 1_555 1_555
H45A C57A 1_555 1_555
H46A C57A 1_555 1_555
H47A C57A 1_555 1_555
C58A C48A 1_555 1_555
H48A C58A 1_555 1_555
H49A C58A 1_555 1_555
H50A C58A 1_555 1_555
C62A O7 1_555 1_555
H60A C62A 1_555 1_555
H61A C62A 1_555 1_555
C63A C62A 1_555 1_555
H62A C63A 1_555 1_555
H63A C63A 1_555 1_555
H64A C63A 1_555 1_555
N3 C4 1_555 1_555
N7 C16 1_555 1_555
N11 C33 1_555 1_555
N15 C45 1_555 1_555
C7 C8 1_555 1_555
C8 C9 1_555 1_555
C9 C11 1_555 1_555
C11 C12 1_555 1_555
C15 C16 1_555 1_555
C18 C19 1_555 1_555
C24 C25 1_555 1_555
C31 C32 1_555 1_555
C36 C37 1_555 1_555
C37 C38 1_555 1_555
C38 C40 1_555 1_555
C40 C41 1_555 1_555
C44 C45 1_555 1_555
C47 C48 1_555 1_555
C53 C54 1_555 1_555
N3A C4A 1_555 1_555
N7A C16A 1_555 1_555
N11A C33A 1_555 1_555
N13A C39A 1_555 1_555
N15A C45A 1_555 1_555
C2A C3A 1_555 1_555
C7A C8A 1_555 1_555
C8A C9A 1_555 1_555
C9A C11A 1_555 1_555
C11A C12A 1_555 1_555
C15A C16A 1_555 1_555
C18A C19A 1_555 1_555
C24A C25A 1_555 1_555
C31A C32A 1_555 1_555
C36A C37A 1_555 1_555
C37A C38A 1_555 1_555
C38A C40A 1_555 1_555
C40A C41A 1_555 1_555
C44A C45A 1_555 1_555
C47A C48A 1_555 1_555
C53A C54A 1_555 1_555

#END
