
#######################################################################
#
#                 Cambridge Crystallographic Data Centre
#                                CCDC 
#
#######################################################################
#
# If this CIF has been generated from an entry in the Cambridge 
# Structural Database, then it will include bibliographic, chemical, 
# crystal, experimental, refinement or atomic coordinate data resulting 
# from the CCDC's data processing and validation procedures.
#
#######################################################################

data_SODQIM
_chemical_formula_moiety         
'2(Na1 1+),C112 H68 N32 Nd2 O2 Os4 2-,21(H2 O1),2(C1 H4 O1)'
_chemical_name_systematic        
'Disodium hexakis(\m~2~-cyano)-octakis(1,10-phenanthroline)-diaqua-decacyano-tetra-osmium(ii)-di-neodymium(iii) methanol solvate hydrate'
_symmetry_cell_setting           monoclinic
_symmetry_space_group_name_H-M   'P 21/c'
_symmetry_Int_Tables_number      14
_space_group_name_Hall           '-P 2ybc'
loop_
_symmetry_equiv_pos_site_id
_symmetry_equiv_pos_as_xyz
1 x,y,z
2 -x,1/2+y,1/2-z
3 -x,-y,-z
4 x,1/2-y,1/2+z
_cell_length_a                   14.3528(11)
_cell_length_b                   27.880(2)
_cell_length_c                   17.3744(13)
_cell_angle_alpha                90
_cell_angle_beta                 100.908(4)
_cell_angle_gamma                90
_cell_volume                     6826.86
_exptl_crystal_colour            red
_exptl_crystal_description       block
_cell_formula_units_Z            2
_exptl_crystal_preparation       luminescent
loop_
_atom_site_label
_atom_site_type_symbol
_atom_site_fract_x
_atom_site_fract_y
_atom_site_fract_z
Os1 Os 0.431963(17) 0.375623(8) 0.032793(14)
Os2 Os 0.93122(2) 0.630419(9) 0.326097(15)
Nd1 Nd 0.76546(2) 0.478997(11) 0.146021(18)
C1 C 0.2409(5) 0.3342(3) -0.0609(4)
H1 H 0.2283 0.3657 -0.0811
C2 C 0.1752(5) 0.2982(3) -0.0866(4)
H2 H 0.1194 0.3054 -0.1237
C3 C 0.1911(6) 0.2529(3) -0.0586(5)
H3 H 0.1462 0.2283 -0.0755
C4 C 0.2743(6) 0.2428(3) -0.0044(4)
C5 C 0.2985(7) 0.1963(3) 0.0307(6)
H4 H 0.2561 0.1703 0.0165
C6 C 0.3782(7) 0.1889(3) 0.0822(6)
H5 H 0.3905 0.1580 0.1047
C7 C 0.4466(6) 0.2268(3) 0.1048(5)
C8 C 0.5314(7) 0.2219(3) 0.1597(6)
H6 H 0.5474 0.1921 0.1852
C9 C 0.5912(7) 0.2608(3) 0.1762(6)
H7 H 0.6493 0.2577 0.2127
C10 C 0.5667(5) 0.3044(3) 0.1397(5)
H8 H 0.6089 0.3308 0.1517
C11 C 0.4250(5) 0.2723(2) 0.0712(4)
C12 C 0.3382(5) 0.2809(2) 0.0180(4)
C13 C 0.5475(5) 0.4130(2) 0.0725(4)
C14 C 0.3648(4) 0.4320(2) -0.0185(4)
C15 C 0.4837(5) 0.3625(2) -0.0666(4)
C16 C 0.3835(5) 0.3898(3) 0.1326(4)
C17 C 1.0667(6) 0.6861(3) 0.4589(4)
H9 H 1.1042 0.6578 0.4664
C18 C 1.0963(8) 0.7268(3) 0.5052(5)
H10 H 1.1522 0.7253 0.5444
C19 C 1.0457(8) 0.7677(3) 0.4939(5)
H11 H 1.0657 0.7951 0.5253
C20 C 0.9639(7) 0.7699(3) 0.4359(5)
C21 C 0.9067(8) 0.8117(3) 0.4177(6)
H12 H 0.9268 0.8409 0.4439
C22 C 0.8261(8) 0.8112(3) 0.3650(6)
H13 H 0.7899 0.8398 0.3552
C23 C 0.7919(6) 0.7675(3) 0.3219(5)
C24 C 0.7063(7) 0.7634(3) 0.2691(6)
H14 H 0.6660 0.7905 0.2572
C25 C 0.6803(6) 0.7201(3) 0.2344(5)
H15 H 0.6211 0.7167 0.1996
C26 C 0.7416(5) 0.6810(3) 0.2507(4)
H16 H 0.7227 0.6510 0.2267
C27 C 0.8497(6) 0.7269(2) 0.3359(4)
C28 C 0.9362(6) 0.7275(3) 0.3929(4)
C29 C 0.8696(5) 0.5841(2) 0.2476(4)
C30 C 0.8579(6) 0.6022(2) 0.4042(4)
C31 C 1.0371(7) 0.5850(3) 0.3610(5)
C32 C 1.0039(5) 0.6625(2) 0.2487(4)
C33 C 1.0171(5) 0.4851(2) 0.2044(4)
H17 H 0.9981 0.4986 0.2492
C34 C 1.1134(5) 0.4797(3) 0.2056(4)
H18 H 1.1586 0.4887 0.2505
C35 C 1.1427(5) 0.4609(2) 0.1401(5)
H19 H 1.2082 0.4565 0.1395
C36 C 1.0737(5) 0.4484(2) 0.0749(4)
C37 C 1.0978(5) 0.4303(2) 0.0028(5)
H20 H 1.1627 0.4267 -0.0007
C38 C 1.0308(6) 0.4186(2) -0.0586(4)
H21 H 1.0491 0.4067 -0.1048
C39 C 0.9319(5) 0.4236(2) -0.0565(4)
C40 C 0.8596(6) 0.4119(3) -0.1199(4)
H22 H 0.8748 0.3985 -0.1662
C41 C 0.7662(6) 0.4200(3) -0.1147(4)
H23 H 0.7165 0.4122 -0.1572
C42 C 0.7459(5) 0.4398(3) -0.0463(4)
H24 H 0.6815 0.4462 -0.0441
C43 C 0.9052(5) 0.4425(2) 0.0124(4)
C44 C 0.9773(5) 0.4543(2) 0.0789(4)
C45 C 0.8587(5) 0.4807(2) 0.3469(4)
H25 H 0.8262 0.5106 0.3415
C46 C 0.9184(6) 0.4704(3) 0.4183(4)
H26 H 0.9252 0.4927 0.4602
C47 C 0.9669(7) 0.4278(3) 0.4276(5)
H27 H 1.0095 0.4207 0.4751
C48 C 0.9522(5) 0.3946(3) 0.3651(4)
C49 C 0.9951(6) 0.3482(3) 0.3717(5)
H28 H 1.0409 0.3406 0.4171
C50 C 0.9722(6) 0.3149(3) 0.3154(4)
H29 H 0.9998 0.2838 0.3223
C51 C 0.9057(5) 0.3262(2) 0.2441(4)
C52 C 0.8752(5) 0.2921(2) 0.1861(4)
H30 H 0.8979 0.2601 0.1921
C53 C 0.8115(5) 0.3056(2) 0.1200(4)
H31 H 0.7880 0.2827 0.0806
C54 C 0.7815(5) 0.3538(2) 0.1114(4)
H32 H 0.7401 0.3630 0.0644
C55 C 0.8683(5) 0.3735(2) 0.2334(4)
C56 C 0.8897(5) 0.4073(2) 0.2962(4)
N1 N 0.3207(4) 0.32656(19) -0.0092(3)
N2 N 0.4860(4) 0.3108(2) 0.0882(3)
N3 N 0.6181(4) 0.4333(2) 0.0946(4)
N4 N 0.3206(4) 0.46495(19) -0.0489(3)
N5 N 0.5131(5) 0.3572(3) -0.1237(4)
N6 N 0.3600(5) 0.3980(3) 0.1920(4)
N7 N 0.9869(5) 0.6864(2) 0.4045(3)
N8 N 0.8259(4) 0.68413(19) 0.2988(3)
N9 N 0.8316(4) 0.55654(19) 0.2009(3)
N10 N 0.8131(5) 0.5867(2) 0.4483(4)
N11 N 1.1006(7) 0.5593(3) 0.3826(5)
N12 N 1.0437(5) 0.6830(2) 0.2072(4)
N13 N 0.9493(4) 0.47238(18) 0.1441(3)
N14 N 0.8123(4) 0.45009(18) 0.0164(3)
N15 N 0.8452(4) 0.45085(19) 0.2865(3)
N16 N 0.8089(4) 0.38708(19) 0.1663(3)
O8 O 0.6495(4) 0.4996(2) 0.2282(3)
H36 H 0.5950 0.5004 0.1988
H37 H 0.6438 0.5096 0.2732
Os1B Os 0.568037(17) 0.624377(8) -0.032793(14)
Os2B Os 0.06878(2) 0.369581(9) -0.326097(15)
Nd1B Nd 0.23454(2) 0.521003(11) -0.146021(18)
C1B C 0.7591(5) 0.6658(3) 0.0609(4)
H1B H 0.7717 0.6343 0.0811
C2B C 0.8248(5) 0.7018(3) 0.0866(4)
H2B H 0.8806 0.6946 0.1237
C3B C 0.8089(6) 0.7471(3) 0.0586(5)
H3B H 0.8538 0.7717 0.0755
C4B C 0.7257(6) 0.7572(3) 0.0044(4)
C5B C 0.7015(7) 0.8037(3) -0.0307(6)
H4B H 0.7439 0.8297 -0.0165
C6B C 0.6218(7) 0.8111(3) -0.0822(6)
H5B H 0.6095 0.8420 -0.1047
C7B C 0.5534(6) 0.7732(3) -0.1048(5)
C8B C 0.4686(7) 0.7781(3) -0.1597(6)
H6B H 0.4526 0.8079 -0.1852
C9B C 0.4088(7) 0.7392(3) -0.1762(6)
H7B H 0.3507 0.7423 -0.2127
C10B C 0.4333(5) 0.6956(3) -0.1397(5)
H8B H 0.3911 0.6692 -0.1517
C11B C 0.5750(5) 0.7277(2) -0.0712(4)
C12B C 0.6618(5) 0.7191(2) -0.0180(4)
C13B C 0.4525(5) 0.5870(2) -0.0725(4)
C14B C 0.6352(4) 0.5680(2) 0.0185(4)
C15B C 0.5163(5) 0.6375(2) 0.0666(4)
C16B C 0.6165(5) 0.6102(3) -0.1326(4)
C17B C -0.0667(6) 0.3139(3) -0.4589(4)
H9B H -0.1042 0.3422 -0.4664
C18B C -0.0963(8) 0.2732(3) -0.5052(5)
H10B H -0.1522 0.2747 -0.5444
C19B C -0.0457(8) 0.2323(3) -0.4939(5)
H11B H -0.0657 0.2049 -0.5253
C20B C 0.0361(7) 0.2301(3) -0.4359(5)
C21B C 0.0933(8) 0.1883(3) -0.4177(6)
H12B H 0.0732 0.1591 -0.4439
C22B C 0.1739(8) 0.1888(3) -0.3650(6)
H13B H 0.2101 0.1602 -0.3552
C23B C 0.2081(6) 0.2325(3) -0.3219(5)
C24B C 0.2937(7) 0.2366(3) -0.2691(6)
H14B H 0.3340 0.2095 -0.2572
C25B C 0.3197(6) 0.2799(3) -0.2344(5)
H15B H 0.3789 0.2833 -0.1996
C26B C 0.2584(5) 0.3190(3) -0.2507(4)
H16B H 0.2773 0.3490 -0.2267
C27B C 0.1503(6) 0.2731(2) -0.3359(4)
C28B C 0.0638(6) 0.2725(3) -0.3929(4)
C29B C 0.1304(5) 0.4159(2) -0.2476(4)
C30B C 0.1421(6) 0.3978(2) -0.4042(4)
C31B C -0.0371(7) 0.4150(3) -0.3610(5)
C32B C -0.0039(5) 0.3375(2) -0.2487(4)
C33B C -0.0171(5) 0.5149(2) -0.2044(4)
H17B H 0.0019 0.5014 -0.2492
C34B C -0.1134(5) 0.5203(3) -0.2056(4)
H18B H -0.1586 0.5113 -0.2505
C35B C -0.1427(5) 0.5391(2) -0.1401(5)
H19B H -0.2082 0.5435 -0.1395
C36B C -0.0737(5) 0.5516(2) -0.0749(4)
C37B C -0.0978(5) 0.5697(2) -0.0028(5)
H20B H -0.1627 0.5733 0.0007
C38B C -0.0308(6) 0.5814(2) 0.0586(4)
H21B H -0.0491 0.5933 0.1048
C39B C 0.0681(5) 0.5764(2) 0.0565(4)
C40B C 0.1404(6) 0.5881(3) 0.1199(4)
H22B H 0.1252 0.6015 0.1662
C41B C 0.2338(6) 0.5800(3) 0.1147(4)
H23B H 0.2835 0.5878 0.1572
C42B C 0.2541(5) 0.5602(3) 0.0463(4)
H24B H 0.3185 0.5538 0.0441
C43B C 0.0948(5) 0.5575(2) -0.0124(4)
C44B C 0.0227(5) 0.5457(2) -0.0789(4)
C45B C 0.1413(5) 0.5193(2) -0.3469(4)
H25B H 0.1738 0.4894 -0.3415
C46B C 0.0816(6) 0.5296(3) -0.4183(4)
H26B H 0.0748 0.5073 -0.4602
C47B C 0.0331(7) 0.5722(3) -0.4276(5)
H27B H -0.0095 0.5793 -0.4751
C48B C 0.0478(5) 0.6054(3) -0.3651(4)
C49B C 0.0049(6) 0.6518(3) -0.3717(5)
H28B H -0.0409 0.6594 -0.4171
C50B C 0.0278(6) 0.6851(3) -0.3154(4)
H29B H 0.0002 0.7162 -0.3223
C51B C 0.0943(5) 0.6738(2) -0.2441(4)
C52B C 0.1248(5) 0.7079(2) -0.1861(4)
H30B H 0.1021 0.7399 -0.1921
C53B C 0.1885(5) 0.6944(2) -0.1200(4)
H31B H 0.2120 0.7173 -0.0806
C54B C 0.2185(5) 0.6462(2) -0.1114(4)
H32B H 0.2599 0.6370 -0.0644
C55B C 0.1317(5) 0.6265(2) -0.2334(4)
C56B C 0.1103(5) 0.5927(2) -0.2962(4)
N1B N 0.6793(4) 0.67344(19) 0.0092(3)
N2B N 0.5140(4) 0.6892(2) -0.0882(3)
N3B N 0.3819(4) 0.5667(2) -0.0946(4)
N4B N 0.6794(4) 0.53505(19) 0.0489(3)
N5B N 0.4869(5) 0.6428(3) 0.1237(4)
N6B N 0.6400(5) 0.6020(3) -0.1920(4)
N7B N 0.0131(5) 0.3136(2) -0.4045(3)
N8B N 0.1741(4) 0.31587(19) -0.2988(3)
N9B N 0.1684(4) 0.44346(19) -0.2009(3)
N10B N 0.1869(5) 0.4133(2) -0.4483(4)
N11B N -0.1006(7) 0.4407(3) -0.3826(5)
N12B N -0.0437(5) 0.3170(2) -0.2072(4)
N13B N 0.0507(4) 0.52762(18) -0.1441(3)
N14B N 0.1877(4) 0.54991(18) -0.0164(3)
N15B N 0.1548(4) 0.54915(19) -0.2865(3)
N16B N 0.1911(4) 0.61292(19) -0.1663(3)
O8B O 0.3505(4) 0.5004(2) -0.2282(3)
H36B H 0.4050 0.4996 -0.1988
H37B H 0.3562 0.4904 -0.2732
Na1 Na 0.4094(2) 0.50877(12) 0.5058(2)
O3 O 0.2254(11) 0.4833(6) 0.4450(9)
O4 O 0.3317(13) 0.3816(6) 0.3459(7)
O6 O 0.3924(11) 0.4994(6) 0.2594(10)
C57 C 0.5118(12) 0.2827(7) 0.3972(11)
H33 H 0.4753 0.2591 0.4211
H34 H 0.5114 0.2737 0.3426
H35 H 0.4833 0.3145 0.3989
O14 O 0.6115(8) 0.2837(4) 0.4414(7)
H48 H 0.6176 0.3039 0.4780
O9 O 0.4745(6) 0.5220(3) 0.1240(5)
H38 H 0.4889 0.5060 0.0862
H39 H 0.4477 0.5057 0.1508
O10 O 0.6901(5) 0.3035(3) -0.0707(5)
H40 H 0.6376 0.3181 -0.0848
H41 H 0.6656 0.2762 -0.0665
O11 O 0.7681(6) 0.2975(5) -0.2029(8)
H42 H 0.7704 0.2679 -0.1912
H43 H 0.8191 0.3069 -0.2163
O12 O 0.4830(8) 0.6022(4) 0.2726(6)
H44 H 0.4304 0.6161 0.2558
H45 H 0.5016 0.6078 0.2298
O13 O 0.3610(7) 0.4458(4) 0.6495(6)
H46 H 0.3391 0.4272 0.6116
H47 H 0.4095 0.4310 0.6739
O15 O 0.2517(14) 0.5886(9) 0.5216(10)
O16 O 0.6314(18) 0.3571(8) 0.5412(9)
O17 O 0.2880(15) 0.6239(10) 0.3107(10)
O18 O 0.7086(17) 0.3403(18) 0.3399(14)
O1? O 0.3688(4) 0.4893(2) 0.4061(3)
O2? O 0.4094(2) 0.50877(12) 0.5058(2)
Na2? Na 0.3688(4) 0.4893(2) 0.4061(3)
O5? O 0.2349(13) 0.1234(6) -0.1604(8)
O7? O 0.4834(11) 0.4918(11) 0.5675(14)
loop_
_geom_bond_atom_site_label_1
_geom_bond_atom_site_label_2
_geom_bond_site_symmetry_1
_geom_bond_site_symmetry_2
Os1 C13 1_555 1_555
Os2 C29 1_555 1_555
Nd1 N3 1_555 1_555
C1 H1 1_555 1_555
C2 C1 1_555 1_555
H2 C2 1_555 1_555
C3 C2 1_555 1_555
H3 C3 1_555 1_555
C4 C3 1_555 1_555
C5 C4 1_555 1_555
H4 C5 1_555 1_555
C6 C5 1_555 1_555
H5 C6 1_555 1_555
C7 C6 1_555 1_555
C8 C7 1_555 1_555
H6 C8 1_555 1_555
C9 C8 1_555 1_555
H7 C9 1_555 1_555
C10 C9 1_555 1_555
H8 C10 1_555 1_555
C11 C7 1_555 1_555
C12 C4 1_555 1_555
C13 N3 1_555 1_555
C14 Os1 1_555 1_555
C15 Os1 1_555 1_555
C16 Os1 1_555 1_555
C17 H9 1_555 1_555
C18 C17 1_555 1_555
H10 C18 1_555 1_555
C19 C18 1_555 1_555
H11 C19 1_555 1_555
C20 C19 1_555 1_555
C21 C20 1_555 1_555
H12 C21 1_555 1_555
C22 C21 1_555 1_555
H13 C22 1_555 1_555
C23 C22 1_555 1_555
C24 C23 1_555 1_555
H14 C24 1_555 1_555
C25 C24 1_555 1_555
H15 C25 1_555 1_555
C26 C25 1_555 1_555
H16 C26 1_555 1_555
C27 C23 1_555 1_555
C28 C20 1_555 1_555
C29 N9 1_555 1_555
C30 Os2 1_555 1_555
C31 Os2 1_555 1_555
C32 Os2 1_555 1_555
C33 H17 1_555 1_555
C34 C33 1_555 1_555
H18 C34 1_555 1_555
C35 C34 1_555 1_555
H19 C35 1_555 1_555
C36 C35 1_555 1_555
C37 C36 1_555 1_555
H20 C37 1_555 1_555
C38 C37 1_555 1_555
H21 C38 1_555 1_555
C39 C38 1_555 1_555
C40 C39 1_555 1_555
H22 C40 1_555 1_555
C41 C40 1_555 1_555
H23 C41 1_555 1_555
C42 C41 1_555 1_555
H24 C42 1_555 1_555
C43 C39 1_555 1_555
C44 C36 1_555 1_555
C45 H25 1_555 1_555
C46 C45 1_555 1_555
H26 C46 1_555 1_555
C47 C46 1_555 1_555
H27 C47 1_555 1_555
C48 C47 1_555 1_555
C49 C48 1_555 1_555
H28 C49 1_555 1_555
C50 C49 1_555 1_555
H29 C50 1_555 1_555
C51 C50 1_555 1_555
C52 C51 1_555 1_555
H30 C52 1_555 1_555
C53 C52 1_555 1_555
H31 C53 1_555 1_555
C54 C53 1_555 1_555
H32 C54 1_555 1_555
C55 C51 1_555 1_555
C56 C48 1_555 1_555
C57 H33 1_555 1_555
H34 C57 1_555 1_555
H35 C57 1_555 1_555
N1 Os1 1_555 1_555
N2 Os1 1_555 1_555
N4 C14 1_555 1_555
N5 C15 1_555 1_555
N6 C16 1_555 1_555
N7 Os2 1_555 1_555
N8 Os2 1_555 1_555
N9 Nd1 1_555 1_555
N10 C30 1_555 1_555
N11 C31 1_555 1_555
N12 C32 1_555 1_555
N13 Nd1 1_555 1_555
N14 Nd1 1_555 1_555
N15 Nd1 1_555 1_555
N16 Nd1 1_555 1_555
O8 Nd1 1_555 1_555
H36 O8 1_555 1_555
H37 O8 1_555 1_555
O9 H38 1_555 1_555
H39 O9 1_555 1_555
O10 H40 1_555 1_555
H41 O10 1_555 1_555
O11 H42 1_555 1_555
H43 O11 1_555 1_555
O12 H44 1_555 1_555
H45 O12 1_555 1_555
O13 H46 1_555 1_555
H47 O13 1_555 1_555
O14 C57 1_555 1_555
H48 O14 1_555 1_555
Os1B C13B 1_555 1_555
Os2B C29B 1_555 1_555
Nd1B N4 1_555 1_555
C1B H1B 1_555 1_555
C2B C1B 1_555 1_555
H2B C2B 1_555 1_555
C3B C2B 1_555 1_555
H3B C3B 1_555 1_555
C4B C3B 1_555 1_555
C5B C4B 1_555 1_555
H4B C5B 1_555 1_555
C6B C5B 1_555 1_555
H5B C6B 1_555 1_555
C7B C6B 1_555 1_555
C8B C7B 1_555 1_555
H6B C8B 1_555 1_555
C9B C8B 1_555 1_555
H7B C9B 1_555 1_555
C10B C9B 1_555 1_555
H8B C10B 1_555 1_555
C11B C7B 1_555 1_555
C12B C4B 1_555 1_555
C13B N3B 1_555 1_555
C14B Os1B 1_555 1_555
C15B Os1B 1_555 1_555
C16B Os1B 1_555 1_555
C17B H9B 1_555 1_555
C18B C17B 1_555 1_555
H10B C18B 1_555 1_555
C19B C18B 1_555 1_555
H11B C19B 1_555 1_555
C20B C19B 1_555 1_555
C21B C20B 1_555 1_555
H12B C21B 1_555 1_555
C22B C21B 1_555 1_555
H13B C22B 1_555 1_555
C23B C22B 1_555 1_555
C24B C23B 1_555 1_555
H14B C24B 1_555 1_555
C25B C24B 1_555 1_555
H15B C25B 1_555 1_555
C26B C25B 1_555 1_555
H16B C26B 1_555 1_555
C27B C23B 1_555 1_555
C28B C20B 1_555 1_555
C29B N9B 1_555 1_555
C30B Os2B 1_555 1_555
C31B Os2B 1_555 1_555
C32B Os2B 1_555 1_555
C33B H17B 1_555 1_555
C34B C33B 1_555 1_555
H18B C34B 1_555 1_555
C35B C34B 1_555 1_555
H19B C35B 1_555 1_555
C36B C35B 1_555 1_555
C37B C36B 1_555 1_555
H20B C37B 1_555 1_555
C38B C37B 1_555 1_555
H21B C38B 1_555 1_555
C39B C38B 1_555 1_555
C40B C39B 1_555 1_555
H22B C40B 1_555 1_555
C41B C40B 1_555 1_555
H23B C41B 1_555 1_555
C42B C41B 1_555 1_555
H24B C42B 1_555 1_555
C43B C39B 1_555 1_555
C44B C36B 1_555 1_555
C45B H25B 1_555 1_555
C46B C45B 1_555 1_555
H26B C46B 1_555 1_555
C47B C46B 1_555 1_555
H27B C47B 1_555 1_555
C48B C47B 1_555 1_555
C49B C48B 1_555 1_555
H28B C49B 1_555 1_555
C50B C49B 1_555 1_555
H29B C50B 1_555 1_555
C51B C50B 1_555 1_555
C52B C51B 1_555 1_555
H30B C52B 1_555 1_555
C53B C52B 1_555 1_555
H31B C53B 1_555 1_555
C54B C53B 1_555 1_555
H32B C54B 1_555 1_555
C55B C51B 1_555 1_555
C56B C48B 1_555 1_555
N1B Os1B 1_555 1_555
N2B Os1B 1_555 1_555
N3B Nd1B 1_555 1_555
N4B Nd1 1_555 1_555
N5B C15B 1_555 1_555
N6B C16B 1_555 1_555
N7B Os2B 1_555 1_555
N8B Os2B 1_555 1_555
N9B Nd1B 1_555 1_555
N10B C30B 1_555 1_555
N11B C31B 1_555 1_555
N12B C32B 1_555 1_555
N13B Nd1B 1_555 1_555
N14B Nd1B 1_555 1_555
N15B Nd1B 1_555 1_555
N16B Nd1B 1_555 1_555
O8B Nd1B 1_555 1_555
H36B O8B 1_555 1_555
H37B O8B 1_555 1_555
C1 N1 1_555 1_555
C10 N2 1_555 1_555
C11 C12 1_555 1_555
C11 N2 1_555 1_555
C12 N1 1_555 1_555
C17 N7 1_555 1_555
C26 N8 1_555 1_555
C27 C28 1_555 1_555
C27 N8 1_555 1_555
C28 N7 1_555 1_555
C33 N13 1_555 1_555
C42 N14 1_555 1_555
C43 C44 1_555 1_555
C43 N14 1_555 1_555
C44 N13 1_555 1_555
C45 N15 1_555 1_555
C54 N16 1_555 1_555
C55 C56 1_555 1_555
C55 N16 1_555 1_555
C56 N15 1_555 1_555
C1B N1B 1_555 1_555
C10B N2B 1_555 1_555
C11B C12B 1_555 1_555
C11B N2B 1_555 1_555
C12B N1B 1_555 1_555
C14B N4B 1_555 1_555
C17B N7B 1_555 1_555
C26B N8B 1_555 1_555
C27B C28B 1_555 1_555
C27B N8B 1_555 1_555
C28B N7B 1_555 1_555
C33B N13B 1_555 1_555
C42B N14B 1_555 1_555
C43B C44B 1_555 1_555
C43B N14B 1_555 1_555
C44B N13B 1_555 1_555
C45B N15B 1_555 1_555
C54B N16B 1_555 1_555
C55B C56B 1_555 1_555
C55B N16B 1_555 1_555
C56B N15B 1_555 1_555

#END
