
#######################################################################
#
#                 Cambridge Crystallographic Data Centre
#                                CCDC 
#
#######################################################################
#
# If this CIF has been generated from an entry in the Cambridge 
# Structural Database, then it will include bibliographic, chemical, 
# crystal, experimental, refinement or atomic coordinate data resulting 
# from the CCDC's data processing and validation procedures.
#
#######################################################################

data_SODQEI
_chemical_formula_moiety         
'2(Na1 1+),C112 H68 Gd2 N32 O2 Os4 2-,21(H2 O1)'
_chemical_name_systematic        
'Disodium hexakis(\m~2~-cyano)-octakis(1,10-phenanthroline)-diaqua-decacyano-tetra-osmium(ii)-di-gadolinium(iii) hydrate'
_symmetry_cell_setting           monoclinic
_symmetry_space_group_name_H-M   'P 21/c'
_symmetry_Int_Tables_number      14
_space_group_name_Hall           '-P 2ybc'
loop_
_symmetry_equiv_pos_site_id
_symmetry_equiv_pos_as_xyz
1 x,y,z
2 -x,1/2+y,1/2-z
3 -x,-y,-z
4 x,1/2-y,1/2+z
_cell_length_a                   14.266(2)
_cell_length_b                   27.920(5)
_cell_length_c                   17.365(3)
_cell_angle_alpha                90
_cell_angle_beta                 101.780(11)
_cell_angle_gamma                90
_cell_volume                     6770.92
_exptl_crystal_colour            red
_exptl_crystal_description       block
_cell_formula_units_Z            2
_exptl_crystal_preparation       luminescent
loop_
_atom_site_label
_atom_site_type_symbol
_atom_site_fract_x
_atom_site_fract_y
_atom_site_fract_z
Os1 Os -0.93401(2) -0.123004(12) 0.46604(2)
Os2 Os -1.43027(3) 0.130113(13) 0.17419(2)
Gd1 Gd -1.26776(3) -0.020529(14) 0.35513(2)
C1 C -0.7411(5) -0.1661(3) 0.5602(5)
H1 H -0.7274 -0.1350 0.5819
C2 C -0.6757(6) -0.2029(4) 0.5846(6)
H2 H -0.6182 -0.1967 0.6217
C3 C -0.6947(7) -0.2481(4) 0.5548(6)
H3 H -0.6505 -0.2733 0.5714
C4 C -0.7787(7) -0.2570(3) 0.5002(6)
C5 C -0.8037(9) -0.3034(4) 0.4643(7)
H4 H -0.7622 -0.3299 0.4789
C6 C -0.8879(9) -0.3093(4) 0.4087(8)
H5 H -0.9014 -0.3396 0.3840
C7 C -0.9551(8) -0.2710(4) 0.3876(8)
C8 C -1.0397(8) -0.2746(4) 0.3319(9)
H6 H -1.0572 -0.3039 0.3050
C9 C -1.0980(8) -0.2347(4) 0.3164(8)
H7 H -1.1566 -0.2367 0.2789
C10 C -1.0714(7) -0.1917(4) 0.3554(7)
H8 H -1.1133 -0.1651 0.3442
C11 C -0.9308(6) -0.2256(3) 0.4238(6)
C12 C -0.8422(6) -0.2186(3) 0.4787(6)
C13 C -1.0510(6) -0.0846(3) 0.4268(5)
C14 C -0.8641(6) -0.0671(3) 0.5192(5)
C15 C -0.8867(6) -0.1091(4) 0.3642(6)
C16 C -0.9862(6) -0.1369(3) 0.5645(6)
C17 C -1.5657(8) 0.1869(5) 0.0404(7)
H9 H -1.6036 0.1587 0.0328
C18 C -1.5968(10) 0.2266(5) -0.0065(7)
H10 H -1.6536 0.2250 -0.0460
C19 C -1.5444(9) 0.2674(5) 0.0055(7)
H11 H -1.5640 0.2945 -0.0270
C20 C -1.4631(9) 0.2701(4) 0.0641(7)
C21 C -1.4042(11) 0.3113(4) 0.0851(9)
H12 H -1.4238 0.3406 0.0587
C22 C -1.3219(11) 0.3111(4) 0.1405(9)
H13 H -1.2859 0.3398 0.1525
C23 C -1.2892(9) 0.2671(4) 0.1813(7)
C24 C -1.2029(9) 0.2621(4) 0.2342(8)
H14 H -1.1613 0.2888 0.2464
C25 C -1.1772(8) 0.2181(4) 0.2691(7)
H15 H -1.1174 0.2146 0.3047
C26 C -1.2380(7) 0.1793(3) 0.2526(6)
H16 H -1.2190 0.1494 0.2767
C27 C -1.3477(7) 0.2263(3) 0.1660(6)
C28 C -1.4339(8) 0.2277(4) 0.1083(6)
C29 C -1.3689(6) 0.0832(3) 0.2541(5)
C30 C -1.5402(8) 0.0852(4) 0.1379(6)
C31 C -1.5024(6) 0.1624(3) 0.2518(6)
C32 C -1.3568(7) 0.1021(3) 0.0945(6)
C33 C -1.2836(6) -0.1438(3) 0.3916(6)
H17 H -1.2435 -0.1341 0.4397
C34 C -1.3123(7) -0.1929(3) 0.3832(6)
H18 H -1.2886 -0.2157 0.4230
C35 C -1.3755(7) -0.2061(3) 0.3153(6)
H19 H -1.3978 -0.2382 0.3083
C36 C -1.4064(7) -0.1720(3) 0.2572(6)
C37 C -1.4713(8) -0.1836(4) 0.1851(7)
H20 H -1.4989 -0.2146 0.1779
C38 C -1.4930(8) -0.1507(4) 0.1280(7)
H21 H -1.5382 -0.1586 0.0815
C39 C -1.4502(7) -0.1042(4) 0.1350(6)
C40 C -1.4637(9) -0.0706(4) 0.0718(6)
H22 H -1.5064 -0.0776 0.0235
C41 C -1.4146(8) -0.0284(4) 0.0812(6)
H23 H -1.4203 -0.0062 0.0390
C42 C -1.3558(7) -0.0183(3) 0.1541(5)
H24 H -1.3227 0.0115 0.1601
C43 C -1.3890(6) -0.0914(3) 0.2049(5)
C44 C -1.3695(6) -0.1251(3) 0.2672(5)
C45 C -1.5169(6) -0.0140(3) 0.2935(6)
H25 H -1.4984 -0.0002 0.2489
C46 C -1.6152(7) -0.0206(4) 0.2919(6)
H26 H -1.6613 -0.0124 0.2462
C47 C -1.6441(6) -0.0388(3) 0.3563(7)
H27 H -1.7102 -0.0430 0.3562
C48 C -1.5744(6) -0.0513(3) 0.4224(6)
C49 C -1.5982(8) -0.0696(3) 0.4938(7)
H28 H -1.6638 -0.0727 0.4966
C50 C -1.5313(8) -0.0821(3) 0.5558(7)
H29 H -1.5495 -0.0952 0.6010
C51 C -1.4324(7) -0.0759(3) 0.5545(6)
C52 C -1.3582(8) -0.0874(4) 0.6188(6)
H30 H -1.3732 -0.1016 0.6645
C53 C -1.2644(8) -0.0783(4) 0.6157(6)
H31 H -1.2140 -0.0852 0.6592
C54 C -1.2455(7) -0.0585(3) 0.5469(6)
H32 H -1.1805 -0.0523 0.5451
C55 C -1.4045(7) -0.0562(3) 0.4868(5)
C56 C -1.4771(6) -0.0445(3) 0.4193(5)
N1 N -0.8226(5) -0.1730(3) 0.5072(4)
N2 N -0.9905(5) -0.1865(3) 0.4075(5)
N3 N -1.1225(5) -0.0648(3) 0.4057(4)
N4 N -0.8178(5) -0.0354(3) 0.5524(4)
N5 N -0.8636(7) -0.1013(4) 0.3061(6)
N6 N -1.0164(7) -0.1433(4) 0.6209(6)
N7 N -1.4855(6) 0.1866(3) 0.0955(5)
N8 N -1.3234(5) 0.1830(3) 0.2032(4)
N9 N -1.3328(5) 0.0549(3) 0.2997(4)
N10 N -1.6041(8) 0.0595(4) 0.1161(7)
N11 N -1.5401(6) 0.1826(3) 0.2945(5)
N12 N -1.3135(7) 0.0870(3) 0.0506(5)
N13 N -1.3096(5) -0.1110(3) 0.3364(4)
N14 N -1.3433(5) -0.0479(3) 0.2159(4)
N15 N -1.4488(5) -0.0264(2) 0.3549(4)
N16 N -1.3117(5) -0.0477(3) 0.4833(4)
O1 O -1.1528(5) 0.0004(3) 0.2774(4)
H33 H -1.1100 0.0219 0.2812
H34 H -1.1559 -0.0074 0.2296
Os1B Os -1.06599(2) 0.123004(12) 0.53396(2)
Os2B Os -0.56973(3) -0.130113(13) 0.82581(2)
Gd1B Gd -0.73224(3) 0.020529(14) 0.64487(2)
C1B C -1.2589(5) 0.1661(3) 0.4398(5)
H1B H -1.2726 0.1350 0.4181
C2B C -1.3243(6) 0.2029(4) 0.4154(6)
H2B H -1.3818 0.1967 0.3783
C3B C -1.3053(7) 0.2481(4) 0.4452(6)
H3B H -1.3495 0.2733 0.4286
C4B C -1.2213(7) 0.2570(3) 0.4998(6)
C5B C -1.1963(9) 0.3034(4) 0.5357(7)
H4B H -1.2378 0.3299 0.5211
C6B C -1.1121(9) 0.3093(4) 0.5913(8)
H5B H -1.0986 0.3396 0.6160
C7B C -1.0449(8) 0.2710(4) 0.6124(8)
C8B C -0.9603(8) 0.2746(4) 0.6681(9)
H6B H -0.9428 0.3039 0.6950
C9B C -0.9020(8) 0.2347(4) 0.6836(8)
H7B H -0.8434 0.2367 0.7211
C10B C -0.9286(7) 0.1917(4) 0.6446(7)
H8B H -0.8867 0.1651 0.6558
C11B C -1.0692(6) 0.2256(3) 0.5762(6)
C12B C -1.1578(6) 0.2186(3) 0.5213(6)
C13B C -0.9490(6) 0.0846(3) 0.5732(5)
C14B C -1.1359(6) 0.0671(3) 0.4808(5)
C15B C -1.1133(6) 0.1091(4) 0.6358(6)
C16B C -1.0138(6) 0.1369(3) 0.4355(6)
C17B C -0.4343(8) -0.1869(5) 0.9596(7)
H9B H -0.3964 -0.1587 0.9672
C18B C -0.4032(10) -0.2266(5) 1.0065(7)
H10B H -0.3464 -0.2250 1.0460
C19B C -0.4556(9) -0.2674(5) 0.9945(7)
H11B H -0.4360 -0.2945 1.0270
C20B C -0.5369(9) -0.2701(4) 0.9359(7)
C21B C -0.5958(11) -0.3113(4) 0.9149(9)
H12B H -0.5762 -0.3406 0.9413
C22B C -0.6781(11) -0.3111(4) 0.8595(9)
H13B H -0.7141 -0.3398 0.8475
C23B C -0.7108(9) -0.2671(4) 0.8187(7)
C24B C -0.7971(9) -0.2621(4) 0.7658(8)
H14B H -0.8387 -0.2888 0.7536
C25B C -0.8228(8) -0.2181(4) 0.7309(7)
H15B H -0.8826 -0.2146 0.6953
C26B C -0.7620(7) -0.1793(3) 0.7474(6)
H16B H -0.7810 -0.1494 0.7233
C27B C -0.6523(7) -0.2263(3) 0.8340(6)
C28B C -0.5661(8) -0.2277(4) 0.8917(6)
C29B C -0.6311(6) -0.0832(3) 0.7459(5)
C30B C -0.4598(8) -0.0852(4) 0.8621(6)
C31B C -0.4976(6) -0.1624(3) 0.7482(6)
C32B C -0.6432(7) -0.1021(3) 0.9055(6)
C33B C -0.7164(6) 0.1438(3) 0.6084(6)
H17B H -0.7565 0.1341 0.5603
C34B C -0.6877(7) 0.1929(3) 0.6168(6)
H18B H -0.7114 0.2157 0.5770
C35B C -0.6245(7) 0.2061(3) 0.6847(6)
H19B H -0.6022 0.2382 0.6917
C36B C -0.5936(7) 0.1720(3) 0.7428(6)
C37B C -0.5287(8) 0.1836(4) 0.8149(7)
H20B H -0.5011 0.2146 0.8221
C38B C -0.5070(8) 0.1507(4) 0.8720(7)
H21B H -0.4618 0.1586 0.9185
C39B C -0.5498(7) 0.1042(4) 0.8650(6)
C40B C -0.5363(9) 0.0706(4) 0.9282(6)
H22B H -0.4936 0.0776 0.9765
C41B C -0.5854(8) 0.0284(4) 0.9188(6)
H23B H -0.5797 0.0062 0.9610
C42B C -0.6442(7) 0.0183(3) 0.8459(5)
H24B H -0.6773 -0.0115 0.8399
C43B C -0.6110(6) 0.0914(3) 0.7951(5)
C44B C -0.6305(6) 0.1251(3) 0.7328(5)
C45B C -0.4831(6) 0.0140(3) 0.7065(6)
H25B H -0.5016 0.0002 0.7511
C46B C -0.3848(7) 0.0206(4) 0.7081(6)
H26B H -0.3387 0.0124 0.7538
C47B C -0.3559(6) 0.0388(3) 0.6437(7)
H27B H -0.2898 0.0430 0.6438
C48B C -0.4256(6) 0.0513(3) 0.5776(6)
C49B C -0.4018(8) 0.0696(3) 0.5062(7)
H28B H -0.3362 0.0727 0.5034
C50B C -0.4687(8) 0.0821(3) 0.4442(7)
H29B H -0.4505 0.0952 0.3990
C51B C -0.5676(7) 0.0759(3) 0.4455(6)
C52B C -0.6418(8) 0.0874(4) 0.3812(6)
H30B H -0.6268 0.1016 0.3355
C53B C -0.7356(8) 0.0783(4) 0.3843(6)
H31B H -0.7860 0.0852 0.3408
C54B C -0.7545(7) 0.0585(3) 0.4531(6)
H32B H -0.8195 0.0523 0.4549
C55B C -0.5955(7) 0.0562(3) 0.5132(5)
C56B C -0.5229(6) 0.0445(3) 0.5807(5)
N1B N -1.1774(5) 0.1730(3) 0.4928(4)
N2B N -1.0095(5) 0.1865(3) 0.5925(5)
N3B N -0.8775(5) 0.0648(3) 0.5943(4)
N4B N -1.1822(5) 0.0354(3) 0.4476(4)
N5B N -1.1364(7) 0.1013(4) 0.6939(6)
N6B N -0.9836(7) 0.1433(4) 0.3791(6)
N7B N -0.5145(6) -0.1866(3) 0.9045(5)
N8B N -0.6766(5) -0.1830(3) 0.7968(4)
N9B N -0.6672(5) -0.0549(3) 0.7003(4)
N10B N -0.3959(8) -0.0595(4) 0.8839(7)
N11B N -0.4599(6) -0.1826(3) 0.7055(5)
N12B N -0.6865(7) -0.0870(3) 0.9494(5)
N13B N -0.6904(5) 0.1110(3) 0.6636(4)
N14B N -0.6567(5) 0.0479(3) 0.7841(4)
N15B N -0.5512(5) 0.0264(2) 0.6451(4)
N16B N -0.6883(5) 0.0477(3) 0.5167(4)
O1B O -0.8472(5) -0.0004(3) 0.7226(4)
H33B H -0.8900 -0.0219 0.7188
H34B H -0.8441 0.0074 0.7704
Na1 Na -1.9111(3) 0.01201(19) 0.0142(3)
O2 O -0.8864(14) 0.2863(7) 0.4386(13)
O4 O -1.7403(15) -0.1256(7) 0.1561(10)
O6 O -1.8605(9) -0.0585(5) -0.1575(9)
H35 H -1.8819 -0.0607 -0.1153
H36 H -1.9105 -0.0734 -0.1802
O7 O -2.0180(9) -0.1039(5) -0.2286(7)
H37 H -2.0173 -0.1177 -0.2817
H38 H -2.0817 -0.1089 -0.2145
O8 O -1.9760(7) 0.0214(4) 0.3768(7)
O9 O -0.7330(7) 0.1996(5) 0.2899(8)
O10 O -0.8075(7) 0.1979(4) 0.4246(7)
H39 H -0.8026 0.1983 0.3766
H40 H -0.8276 0.2263 0.4289
O12 O -1.751(2) 0.0929(12) -0.023(2)
O13 O -1.783(2) 0.1210(11) 0.1848(13)
O14 O -1.905(2) 0.0907(13) -0.2116(17)
O15 O -1.8936(14) -0.0005(7) 0.2424(14)
loop_
_geom_bond_atom_site_label_1
_geom_bond_atom_site_label_2
_geom_bond_site_symmetry_1
_geom_bond_site_symmetry_2
Os1 C13 1_555 1_555
Os2 C29 1_555 1_555
Gd1 N3 1_555 1_555
C1 H1 1_555 1_555
C2 C1 1_555 1_555
H2 C2 1_555 1_555
C3 C2 1_555 1_555
H3 C3 1_555 1_555
C4 C3 1_555 1_555
C5 C4 1_555 1_555
H4 C5 1_555 1_555
C6 C5 1_555 1_555
H5 C6 1_555 1_555
C7 C6 1_555 1_555
C8 C7 1_555 1_555
H6 C8 1_555 1_555
C9 C8 1_555 1_555
H7 C9 1_555 1_555
C10 C9 1_555 1_555
H8 C10 1_555 1_555
C11 C7 1_555 1_555
C12 C4 1_555 1_555
C13 N3 1_555 1_555
C14 Os1 1_555 1_555
C15 Os1 1_555 1_555
C16 Os1 1_555 1_555
C17 H9 1_555 1_555
C18 C17 1_555 1_555
H10 C18 1_555 1_555
C19 C18 1_555 1_555
H11 C19 1_555 1_555
C20 C19 1_555 1_555
C21 C20 1_555 1_555
H12 C21 1_555 1_555
C22 C21 1_555 1_555
H13 C22 1_555 1_555
C23 C22 1_555 1_555
C24 C23 1_555 1_555
H14 C24 1_555 1_555
C25 C24 1_555 1_555
H15 C25 1_555 1_555
C26 C25 1_555 1_555
H16 C26 1_555 1_555
C27 C23 1_555 1_555
C28 C20 1_555 1_555
C29 N9 1_555 1_555
C30 Os2 1_555 1_555
C31 Os2 1_555 1_555
C32 Os2 1_555 1_555
C33 H17 1_555 1_555
C34 C33 1_555 1_555
H18 C34 1_555 1_555
C35 C34 1_555 1_555
H19 C35 1_555 1_555
C36 C35 1_555 1_555
C37 C36 1_555 1_555
H20 C37 1_555 1_555
C38 C37 1_555 1_555
H21 C38 1_555 1_555
C39 C38 1_555 1_555
C40 C39 1_555 1_555
H22 C40 1_555 1_555
C41 C40 1_555 1_555
H23 C41 1_555 1_555
C42 C41 1_555 1_555
H24 C42 1_555 1_555
C43 C39 1_555 1_555
C44 C36 1_555 1_555
C45 H25 1_555 1_555
C46 C45 1_555 1_555
H26 C46 1_555 1_555
C47 C46 1_555 1_555
H27 C47 1_555 1_555
C48 C47 1_555 1_555
C49 C48 1_555 1_555
H28 C49 1_555 1_555
C50 C49 1_555 1_555
H29 C50 1_555 1_555
C51 C50 1_555 1_555
C52 C51 1_555 1_555
H30 C52 1_555 1_555
C53 C52 1_555 1_555
H31 C53 1_555 1_555
C54 C53 1_555 1_555
H32 C54 1_555 1_555
C55 C51 1_555 1_555
C56 C48 1_555 1_555
N1 Os1 1_555 1_555
N2 Os1 1_555 1_555
N4 C14 1_555 1_555
N5 C15 1_555 1_555
N6 C16 1_555 1_555
N7 Os2 1_555 1_555
N8 Os2 1_555 1_555
N9 Gd1 1_555 1_555
N10 C30 1_555 1_555
N11 C31 1_555 1_555
N12 C32 1_555 1_555
N13 Gd1 1_555 1_555
N14 Gd1 1_555 1_555
N15 Gd1 1_555 1_555
N16 Gd1 1_555 1_555
O1 Gd1 1_555 1_555
H33 O1 1_555 1_555
H34 O1 1_555 1_555
O6 H35 1_555 1_555
H36 O6 1_555 1_555
O7 H37 1_555 1_555
H38 O7 1_555 1_555
O10 H39 1_555 1_555
H40 O10 1_555 1_555
Os1B C13B 1_555 1_555
Os2B C29B 1_555 1_555
Gd1B N4 1_555 1_555
C1B H1B 1_555 1_555
C2B C1B 1_555 1_555
H2B C2B 1_555 1_555
C3B C2B 1_555 1_555
H3B C3B 1_555 1_555
C4B C3B 1_555 1_555
C5B C4B 1_555 1_555
H4B C5B 1_555 1_555
C6B C5B 1_555 1_555
H5B C6B 1_555 1_555
C7B C6B 1_555 1_555
C8B C7B 1_555 1_555
H6B C8B 1_555 1_555
C9B C8B 1_555 1_555
H7B C9B 1_555 1_555
C10B C9B 1_555 1_555
H8B C10B 1_555 1_555
C11B C7B 1_555 1_555
C12B C4B 1_555 1_555
C13B N3B 1_555 1_555
C14B Os1B 1_555 1_555
C15B Os1B 1_555 1_555
C16B Os1B 1_555 1_555
C17B H9B 1_555 1_555
C18B C17B 1_555 1_555
H10B C18B 1_555 1_555
C19B C18B 1_555 1_555
H11B C19B 1_555 1_555
C20B C19B 1_555 1_555
C21B C20B 1_555 1_555
H12B C21B 1_555 1_555
C22B C21B 1_555 1_555
H13B C22B 1_555 1_555
C23B C22B 1_555 1_555
C24B C23B 1_555 1_555
H14B C24B 1_555 1_555
C25B C24B 1_555 1_555
H15B C25B 1_555 1_555
C26B C25B 1_555 1_555
H16B C26B 1_555 1_555
C27B C23B 1_555 1_555
C28B C20B 1_555 1_555
C29B N9B 1_555 1_555
C30B Os2B 1_555 1_555
C31B Os2B 1_555 1_555
C32B Os2B 1_555 1_555
C33B H17B 1_555 1_555
C34B C33B 1_555 1_555
H18B C34B 1_555 1_555
C35B C34B 1_555 1_555
H19B C35B 1_555 1_555
C36B C35B 1_555 1_555
C37B C36B 1_555 1_555
H20B C37B 1_555 1_555
C38B C37B 1_555 1_555
H21B C38B 1_555 1_555
C39B C38B 1_555 1_555
C40B C39B 1_555 1_555
H22B C40B 1_555 1_555
C41B C40B 1_555 1_555
H23B C41B 1_555 1_555
C42B C41B 1_555 1_555
H24B C42B 1_555 1_555
C43B C39B 1_555 1_555
C44B C36B 1_555 1_555
C45B H25B 1_555 1_555
C46B C45B 1_555 1_555
H26B C46B 1_555 1_555
C47B C46B 1_555 1_555
H27B C47B 1_555 1_555
C48B C47B 1_555 1_555
C49B C48B 1_555 1_555
H28B C49B 1_555 1_555
C50B C49B 1_555 1_555
H29B C50B 1_555 1_555
C51B C50B 1_555 1_555
C52B C51B 1_555 1_555
H30B C52B 1_555 1_555
C53B C52B 1_555 1_555
H31B C53B 1_555 1_555
C54B C53B 1_555 1_555
H32B C54B 1_555 1_555
C55B C51B 1_555 1_555
C56B C48B 1_555 1_555
N1B Os1B 1_555 1_555
N2B Os1B 1_555 1_555
N3B Gd1B 1_555 1_555
N4B Gd1 1_555 1_555
N5B C15B 1_555 1_555
N6B C16B 1_555 1_555
N7B Os2B 1_555 1_555
N8B Os2B 1_555 1_555
N9B Gd1B 1_555 1_555
N10B C30B 1_555 1_555
N11B C31B 1_555 1_555
N12B C32B 1_555 1_555
N13B Gd1B 1_555 1_555
N14B Gd1B 1_555 1_555
N15B Gd1B 1_555 1_555
N16B Gd1B 1_555 1_555
O1B Gd1B 1_555 1_555
H33B O1B 1_555 1_555
H34B O1B 1_555 1_555
C1 N1 1_555 1_555
C10 N2 1_555 1_555
C11 C12 1_555 1_555
C11 N2 1_555 1_555
C12 N1 1_555 1_555
C17 N7 1_555 1_555
C26 N8 1_555 1_555
C27 C28 1_555 1_555
C27 N8 1_555 1_555
C28 N7 1_555 1_555
C33 N13 1_555 1_555
C42 N14 1_555 1_555
C43 C44 1_555 1_555
C43 N14 1_555 1_555
C44 N13 1_555 1_555
C45 N15 1_555 1_555
C54 N16 1_555 1_555
C55 C56 1_555 1_555
C55 N16 1_555 1_555
C56 N15 1_555 1_555
C1B N1B 1_555 1_555
C10B N2B 1_555 1_555
C11B C12B 1_555 1_555
C11B N2B 1_555 1_555
C12B N1B 1_555 1_555
C14B N4B 1_555 1_555
C17B N7B 1_555 1_555
C26B N8B 1_555 1_555
C27B C28B 1_555 1_555
C27B N8B 1_555 1_555
C28B N7B 1_555 1_555
C33B N13B 1_555 1_555
C42B N14B 1_555 1_555
C43B C44B 1_555 1_555
C43B N14B 1_555 1_555
C44B N13B 1_555 1_555
C45B N15B 1_555 1_555
C54B N16B 1_555 1_555
C55B C56B 1_555 1_555
C55B N16B 1_555 1_555
C56B N15B 1_555 1_555

#END
