
#######################################################################
#
#                 Cambridge Crystallographic Data Centre
#                                CCDC 
#
#######################################################################
#
# If this CIF has been generated from an entry in the Cambridge 
# Structural Database, then it will include bibliographic, chemical, 
# crystal, experimental, refinement or atomic coordinate data resulting 
# from the CCDC's data processing and validation procedures.
#
#######################################################################

data_SUPPUO01
_chemical_formula_moiety         
'C96 H76 B4 Mn4 N36 4+,4(F6 P1 1-),4(C2 H3 N1),C4 H10 O1'
_chemical_name_systematic        
'tetrakis(\m~3~-(Hydrogentris(3-(2-pyridyl)pyrazol-1-yl)borato))-tetra-manganese(ii) tetrakis(hexafluorophosphate) acetonitrile diethyl ether solvate'
_symmetry_cell_setting           monoclinic
_symmetry_space_group_name_H-M   'P 21/n'
_symmetry_Int_Tables_number      14
_space_group_name_Hall           '-P 2yn'
loop_
_symmetry_equiv_pos_site_id
_symmetry_equiv_pos_as_xyz
1 x,y,z
2 1/2-x,1/2+y,1/2-z
3 -x,-y,-z
4 1/2+x,1/2-y,1/2+z
_cell_length_a                   21.778(8)
_cell_length_b                   20.352(6)
_cell_length_c                   28.898(9)
_cell_angle_alpha                90
_cell_angle_beta                 103.83(3)
_cell_angle_gamma                90
_cell_volume                     12437
_exptl_crystal_colour            yellow
_exptl_crystal_description       block
_cell_formula_units_Z            4
loop_
_atom_site_label
_atom_site_type_symbol
_atom_site_fract_x
_atom_site_fract_y
_atom_site_fract_z
Mn1 Mn 0.29411(3) 0.05651(3) 0.13379(2)
Mn2 Mn 0.39460(3) 0.27577(3) 0.02141(2)
Mn3 Mn 0.10630(3) 0.24937(3) 0.00132(3)
Mn4 Mn 0.24894(3) 0.03162(3) -0.08515(3)
B1 B 0.2697(3) 0.2353(3) 0.0895(2)
H1 H 0.2661(3) 0.2053(3) 0.0625(2)
N1 N 0.3424(2) 0.1535(2) 0.14364(13)
N2 N 0.3261(2) 0.2174(2) 0.13083(13)
C1 C 0.3658(2) 0.2579(2) 0.1608(2)
H2 H 0.3644(2) 0.3036(2) 0.1594(2)
C2 C 0.4081(2) 0.2224(2) 0.1931(2)
H3 H 0.4406(2) 0.2382(2) 0.2177(2)
C3 C 0.3923(2) 0.1572(2) 0.1816(2)
C4 C 0.4229(2) 0.0965(2) 0.2024(2)
C5 C 0.4805(3) 0.0972(3) 0.2357(2)
H4 H 0.5002(3) 0.1367(3) 0.2465(2)
C6 C 0.5078(3) 0.0378(3) 0.2525(2)
H5 H 0.5465(3) 0.0369(3) 0.2747(2)
C7 C 0.4777(3) -0.0196(3) 0.2362(2)
H6 H 0.4958(3) -0.0599(3) 0.2467(2)
C8 C 0.4208(3) -0.0165(3) 0.2042(2)
H7 H 0.4002(3) -0.0557(3) 0.1939(2)
N3 N 0.3926(2) 0.0401(2) 0.18647(14)
N4 N 0.3167(2) 0.3241(2) 0.04620(13)
N5 N 0.2788(2) 0.3075(2) 0.07518(13)
C9 C 0.2532(2) 0.3619(2) 0.0894(2)
H8 H 0.2253(2) 0.3628(2) 0.1092(2)
C10 C 0.2751(2) 0.4161(2) 0.0695(2)
H9 H 0.2658(2) 0.4601(2) 0.0733(2)
C11 C 0.3143(2) 0.3898(2) 0.0426(2)
C12 C 0.3500(2) 0.4237(2) 0.0132(2)
C13 C 0.3454(3) 0.4913(3) 0.0056(2)
H10 H 0.3184(3) 0.5166(3) 0.0189(2)
C14 C 0.3812(4) 0.5197(3) -0.0217(3)
H11 H 0.3791(4) 0.5648(3) -0.0268(3)
C15 C 0.4204(4) 0.4819(3) -0.0417(3)
H12 H 0.4447(4) 0.5006(3) -0.0607(3)
C16 C 0.4224(3) 0.4155(3) -0.0327(2)
H13 H 0.4487(3) 0.3895(3) -0.0462(2)
N6 N 0.3886(2) 0.3864(2) -0.00576(14)
N7 N 0.1505(2) 0.2326(2) 0.07928(13)
N8 N 0.2096(2) 0.2344(2) 0.10893(13)
C17 C 0.2048(3) 0.2414(2) 0.1544(2)
H14 H 0.2387(3) 0.2438(2) 0.1809(2)
C18 C 0.1426(3) 0.2445(2) 0.1552(2)
H15 H 0.1257(3) 0.2497(2) 0.1816(2)
C19 C 0.1102(2) 0.2380(2) 0.1080(2)
C20 C 0.0417(2) 0.2358(2) 0.0868(2)
C21 C -0.0010(3) 0.2347(3) 0.1151(2)
H16 H 0.0128(3) 0.2341(3) 0.1482(2)
C22 C -0.0648(3) 0.2347(4) 0.0935(3)
H17 H -0.0946(3) 0.2339(4) 0.1118(3)
C23 C -0.0834(3) 0.2359(4) 0.0448(3)
H18 H -0.1261(3) 0.2368(4) 0.0295(3)
C24 C -0.0388(3) 0.2357(3) 0.0187(2)
H19 H -0.0520(3) 0.2358(3) -0.0143(2)
N9 N 0.0240(2) 0.2354(2) 0.0391(2)
B2 B 0.2378(3) 0.2170(3) -0.0639(2)
H20 H 0.2455(3) 0.1929(3) -0.0337(2)
N10 N 0.3560(2) 0.2373(2) -0.05312(13)
N11 N 0.2988(2) 0.2221(2) -0.08238(13)
C25 C 0.3047(2) 0.2169(2) -0.1276(2)
H21 H 0.2721(2) 0.2071(2) -0.1540(2)
C26 C 0.3660(2) 0.2283(2) -0.1285(2)
H22 H 0.3835(2) 0.2278(2) -0.1548(2)
C27 C 0.3965(2) 0.2409(2) -0.0813(2)
C28 C 0.4632(2) 0.2561(2) -0.0609(2)
C29 C 0.5063(3) 0.2591(3) -0.0893(2)
H23 H 0.4937(3) 0.2500(3) -0.1217(2)
C30 C 0.5679(3) 0.2756(3) -0.0686(2)
H24 H 0.5973(3) 0.2787(3) -0.0871(2)
C31 C 0.5858(2) 0.2875(3) -0.0207(2)
H25 H 0.6274(2) 0.2985(3) -0.0062(2)
C32 C 0.5409(2) 0.2828(3) 0.0055(2)
H26 H 0.5533(2) 0.2901(3) 0.0382(2)
N12 N 0.4796(2) 0.2680(2) -0.01399(14)
N13 N 0.1763(2) 0.3034(2) -0.02962(13)
N14 N 0.2155(2) 0.2878(2) -0.05813(13)
C33 C 0.2303(2) 0.3433(2) -0.0792(2)
H27 H 0.2564(2) 0.3455(2) -0.1004(2)
C34 C 0.2006(3) 0.3952(3) -0.0643(2)
H28 H 0.2022(3) 0.4390(3) -0.0730(2)
C35 C 0.1676(2) 0.3689(2) -0.0333(2)
C36 C 0.1292(2) 0.4015(2) -0.0050(2)
C37 C 0.1294(3) 0.4696(3) 0.0005(2)
H29 H 0.1539(3) 0.4960(3) -0.0142(2)
C38 C 0.0929(3) 0.4971(3) 0.0281(2)
H30 H 0.0925(3) 0.5424(3) 0.0323(2)
C39 C 0.0569(3) 0.4570(3) 0.0493(2)
H31 H 0.0318(3) 0.4747(3) 0.0681(2)
C40 C 0.0588(3) 0.3904(3) 0.0422(2)
H32 H 0.0341(3) 0.3635(3) 0.0565(2)
N15 N 0.0942(2) 0.3620(2) 0.01559(15)
N16 N 0.1839(2) 0.1158(2) -0.10707(13)
N17 N 0.1869(2) 0.1828(2) -0.10259(13)
C41 C 0.1405(2) 0.2100(3) -0.1369(2)
H33 H 0.1330(2) 0.2548(3) -0.1414(2)
C42 C 0.1067(3) 0.1616(3) -0.1639(2)
H34 H 0.0724(3) 0.1664(3) -0.1900(2)
C43 C 0.1343(2) 0.1035(2) -0.1443(2)
C44 C 0.1165(2) 0.0351(3) -0.1577(2)
C45 C 0.0618(3) 0.0189(3) -0.1904(2)
H35 H 0.0342(3) 0.0516(3) -0.2051(2)
C46 C 0.0481(3) -0.0461(3) -0.2013(2)
H36 H 0.0112(3) -0.0577(3) -0.2234(2)
C47 C 0.0889(3) -0.0930(3) -0.1797(2)
H37 H 0.0802(3) -0.1371(3) -0.1865(2)
C48 C 0.1436(3) -0.0743(3) -0.1473(2)
H38 H 0.1718(3) -0.1068(3) -0.1330(2)
N18 N 0.1578(2) -0.0113(2) -0.1356(2)
B3 B 0.1652(3) 0.0708(3) 0.0169(2)
H39 H 0.1995(3) 0.1019(3) 0.0167(2)
N19 N 0.0874(2) 0.1501(2) -0.03355(13)
N20 N 0.1062(2) 0.0868(2) -0.02249(14)
C49 C 0.0654(3) 0.0454(3) -0.0510(2)
H40 H 0.0681(3) -0.0002(3) -0.0501(2)
C50 C 0.0198(3) 0.0808(3) -0.0813(2)
H41 H -0.0139(3) 0.0649(3) -0.1048(2)
C51 C 0.0348(2) 0.1462(3) -0.0694(2)
C52 C 0.0050(2) 0.2066(3) -0.0912(2)
C53 C -0.0435(3) 0.2060(3) -0.1322(2)
H42 H -0.0596(3) 0.1665(3) -0.1462(2)
C54 C -0.0674(4) 0.2654(4) -0.1517(3)
H43 H -0.0997(4) 0.2663(4) -0.1794(3)
C55 C -0.0436(4) 0.3224(4) -0.1304(3)
H44 H -0.0593(4) 0.3627(4) -0.1432(3)
C56 C 0.0042(3) 0.3195(3) -0.0895(2)
H45 H 0.0200(3) 0.3587(3) -0.0749(2)
N21 N 0.0290(2) 0.2630(2) -0.0697(2)
N22 N 0.2198(2) -0.0164(2) -0.02272(13)
N23 N 0.1855(2) -0.0006(2) 0.00939(14)
C57 C 0.1720(2) -0.0563(2) 0.0309(2)
H46 H 0.1485(2) -0.0585(2) 0.0538(2)
C58 C 0.1986(2) -0.1089(2) 0.0132(2)
H47 H 0.1972(2) -0.1528(2) 0.0217(2)
C59 C 0.2278(2) -0.0823(2) -0.0199(2)
C60 C 0.2641(2) -0.1144(2) -0.0502(2)
C61 C 0.2745(3) -0.1819(2) -0.0481(2)
H48 H 0.2597(3) -0.2077(2) -0.0265(2)
C62 C 0.3069(3) -0.2097(3) -0.0783(2)
H49 H 0.3143(3) -0.2547(3) -0.0774(2)
C63 C 0.3283(3) -0.1709(3) -0.1098(2)
H50 H 0.3500(3) -0.1892(3) -0.1307(2)
C64 C 0.3170(3) -0.1038(3) -0.1100(2)
H51 H 0.3322(3) -0.0774(3) -0.1310(2)
N24 N 0.2852(2) -0.0759(2) -0.08084(15)
N25 N 0.1899(2) 0.0768(2) 0.10756(13)
N26 N 0.1462(2) 0.0720(2) 0.06544(14)
C65 C 0.0878(2) 0.0702(3) 0.0739(2)
H52 H 0.0500(2) 0.0669(3) 0.0508(2)
C66 C 0.0932(2) 0.0738(3) 0.1216(2)
H53 H 0.0607(2) 0.0734(3) 0.1374(2)
C67 C 0.1575(2) 0.0783(2) 0.1418(2)
C68 C 0.1920(3) 0.0889(2) 0.1913(2)
C69 C 0.1616(3) 0.1095(3) 0.2260(2)
H54 H 0.1178(3) 0.1140(3) 0.2189(2)
C70 C 0.1975(4) 0.1232(3) 0.2710(2)
H55 H 0.1784(4) 0.1381(3) 0.2945(2)
C71 C 0.2615(4) 0.1145(3) 0.2808(2)
H56 H 0.2864(4) 0.1232(3) 0.3111(2)
C72 C 0.2887(3) 0.0929(3) 0.2453(2)
H57 H 0.3322(3) 0.0867(3) 0.2523(2)
N27 N 0.2546(2) 0.0804(2) 0.20068(15)
B4 B 0.3689(2) 0.0881(3) 0.0272(2)
H58 H 0.3291(2) 0.1125(3) 0.0232(2)
N28 N 0.3488(2) 0.0701(2) -0.06182(13)
N29 N 0.3901(2) 0.0838(2) -0.01964(13)
C73 C 0.4483(2) 0.0910(2) -0.0272(2)
H59 H 0.4846(2) 0.1008(2) -0.0038(2)
C74 C 0.4462(2) 0.0817(3) -0.0741(2)
H60 H 0.4796(2) 0.0833(3) -0.0889(2)
C75 C 0.3827(2) 0.0691(2) -0.0949(2)
C76 C 0.3505(2) 0.0589(2) -0.1447(2)
C77 C 0.3813(3) 0.0656(3) -0.1814(2)
H61 H 0.4242(3) 0.0756(3) -0.1746(2)
C78 C 0.3481(4) 0.0572(4) -0.2274(2)
H62 H 0.3683(4) 0.0611(4) -0.2522(2)
C79 C 0.2848(4) 0.0431(4) -0.2369(2)
H63 H 0.2612(4) 0.0379(4) -0.2680(2)
C80 C 0.2570(3) 0.0367(3) -0.1987(2)
H64 H 0.2143(3) 0.0262(3) -0.2050(2)
N30 N 0.2887(2) 0.0447(2) -0.15333(14)
N31 N 0.3308(2) 0.0023(2) 0.07782(13)
N32 N 0.3622(2) 0.0167(2) 0.04386(13)
C81 C 0.3877(2) -0.0390(2) 0.0306(2)
H65 H 0.4116(2) -0.0417(2) 0.0080(2)
C82 C 0.3724(2) -0.0904(2) 0.0561(2)
H66 H 0.3837(2) -0.1343(2) 0.0545(2)
C83 C 0.3365(2) -0.0630(2) 0.0848(2)
C84 C 0.3048(2) -0.0947(2) 0.1183(2)
C85 C 0.3031(3) -0.1619(2) 0.1237(2)
H67 H 0.3240(3) -0.1892(2) 0.1067(2)
C86 C 0.2704(4) -0.1880(3) 0.1540(3)
H68 H 0.2684(4) -0.2333(3) 0.1576(3)
C87 C 0.2406(4) -0.1470(3) 0.1791(3)
H69 H 0.2186(4) -0.1637(3) 0.2004(3)
C88 C 0.2439(3) -0.0795(3) 0.1719(2)
H70 H 0.2227(3) -0.0514(3) 0.1883(2)
N33 N 0.2760(2) -0.0537(2) 0.14278(15)
N34 N 0.4298(2) 0.1875(2) 0.06739(12)
N35 N 0.4227(2) 0.1208(2) 0.06441(13)
C89 C 0.4692(2) 0.0921(2) 0.0970(2)
H71 H 0.4745(2) 0.0471(2) 0.1016(2)
C90 C 0.5076(2) 0.1393(2) 0.1224(2)
H72 H 0.5435(2) 0.1332(2) 0.1470(2)
C91 C 0.4813(2) 0.1984(2) 0.1033(2)
C92 C 0.4991(2) 0.2661(2) 0.1176(2)
C93 C 0.5457(3) 0.2797(3) 0.1582(2)
H73 H 0.5676(3) 0.2458(3) 0.1766(2)
C94 C 0.5589(3) 0.3447(3) 0.1708(2)
H74 H 0.5901(3) 0.3552(3) 0.1979(2)
C95 C 0.5255(3) 0.3937(3) 0.1428(2)
H75 H 0.5330(3) 0.4377(3) 0.1509(2)
C96 C 0.4811(3) 0.3763(3) 0.1030(2)
H76 H 0.4590(3) 0.4096(3) 0.0841(2)
N36 N 0.4671(2) 0.3137(2) 0.08927(14)
P1 P 0.47444(10) 0.76336(10) 0.22912(6)
F1 F 0.5272(3) 0.7300(4) 0.2120(2)
F2 F 0.4659(4) 0.7060(3) 0.2612(2)
F3 F 0.4238(4) 0.7997(5) 0.2459(3)
F4 F 0.5202(4) 0.7929(5) 0.2710(2)
F5 F 0.4285(3) 0.7332(3) 0.1853(2)
F6 F 0.4802(5) 0.8204(3) 0.1970(3)
P2 P 0.38426(8) 0.41658(8) 0.24291(6)
F7 F 0.3739(2) 0.4107(2) 0.18715(13)
F8 F 0.3469(2) 0.3501(2) 0.2439(2)
F9 F 0.3951(2) 0.4232(2) 0.29888(14)
F10 F 0.4221(2) 0.4827(2) 0.24227(15)
F11 F 0.3210(2) 0.4563(2) 0.2369(2)
F12 F 0.4472(2) 0.3757(2) 0.2500(2)
P3 P 0.67267(9) 0.15080(11) 0.26109(7)
F13 F 0.6146(2) 0.1758(3) 0.2785(2)
F14 F 0.7306(2) 0.1266(3) 0.2418(2)
F15 F 0.6748(3) 0.0873(3) 0.2906(2)
F16 F 0.6712(3) 0.2140(3) 0.2291(2)
F17 F 0.6264(2) 0.1159(3) 0.2178(2)
F18 F 0.7180(2) 0.1871(3) 0.3032(2)
P4 P 0.22711(9) 0.65574(8) 0.05335(8)
F19 F 0.2393(3) 0.5829(2) 0.0614(3)
F20 F 0.2697(7) 0.6517(6) 0.0219(5)
F21 F 0.2173(4) 0.7279(2) 0.0430(3)
F22 F 0.1904(5) 0.6574(5) 0.0874(3)
F23 F 0.2836(3) 0.6764(3) 0.0943(3)
F24 F 0.1697(4) 0.6368(3) 0.0148(3)
C97 C 0.3427(8) -0.0831(6) 0.3053(5)
H77 H 0.3325(60) -0.0818(34) 0.2711(5)
H78 H 0.3044(33) -0.0855(37) 0.3162(42)
H79 H 0.3683(27) -0.1211(7) 0.3161(42)
C98 C 0.3761(7) -0.0264(7) 0.3234(4)
N37 N 0.4062(7) 0.0175(6) 0.3361(4)
C99 C 0.6264(6) 0.6120(6) 0.1822(5)
H80 H 0.6527(52) 0.6208(16) 0.1605(39)
H81 H 0.6399(63) 0.6387(6) 0.2101(7)
H82 H 0.5832(13) 0.6222(18) 0.1670(46)
C100 C 0.6311(5) 0.5481(6) 0.1946(5)
N38 N 0.6355(5) 0.4937(5) 0.2048(5)
C101 C 0.1784(7) -0.2407(9) -0.1688(7)
H83 H 0.1393(32) -0.2169(60) -0.1737(11)
H84 H 0.2130(36) -0.2117(54) -0.1559(25)
H85 H 0.1783(68) -0.2762(10) -0.1470(18)
C102 C 0.1852(10) -0.2660(14) -0.2126(12)
N39 N 0.1997(25) -0.2848(24) -0.2437(15)
C103 C 0.6073(5) 0.4327(5) -0.1451(4)
H86 H 0.6388(20) 0.4036(34) -0.1272(17)
H87 H 0.6257(27) 0.4751(9) -0.1472(28)
H88 H 0.5913(9) 0.4153(40) -0.1766(12)
C104 C 0.5582(4) 0.4387(4) -0.1225(3)
N40 N 0.5190(5) 0.4427(5) -0.1044(4)
C105 C 0.0689(10) 0.5572(16) -0.1288(8)
H89 H 0.0480(52) 0.573(13) -0.1051(67)
H90 H 0.0695(10) 0.5100(17) -0.129(11)
H91 H 0.0467(47) 0.573(13) -0.1596(49)
C106 C 0.1316(15) 0.5812(14) -0.1182(11)
H92 H 0.1284(15) 0.6197(14) -0.0992(11)
H93 H 0.1535(15) 0.5489(14) -0.0955(11)
O1 O 0.1756(13) 0.5987(19) -0.1393(13)
C107 C 0.2357(15) 0.5612(17) -0.1215(16)
H94 H 0.2371(15) 0.5234(17) -0.1418(16)
H95 H 0.2388(15) 0.5458(17) -0.0893(16)
C108 C 0.2884(13) 0.6073(12) -0.1228(11)
H96 H 0.2734(50) 0.6517(13) -0.123(15)
H97 H 0.304(13) 0.599(13) -0.1508(71)
H98 H 0.3222(80) 0.601(14) -0.0950(71)
loop_
_geom_bond_atom_site_label_1
_geom_bond_atom_site_label_2
_geom_bond_site_symmetry_1
_geom_bond_site_symmetry_2
Mn1 N1 1_555 1_555
Mn2 N4 1_555 1_555
Mn3 N7 1_555 1_555
Mn4 N16 1_555 1_555
B1 H1 1_555 1_555
N1 N2 1_555 1_555
N2 B1 1_555 1_555
C1 N2 1_555 1_555
H2 C1 1_555 1_555
C2 C1 1_555 1_555
H3 C2 1_555 1_555
C3 N1 1_555 1_555
C4 C3 1_555 1_555
C5 C4 1_555 1_555
H4 C5 1_555 1_555
C6 C5 1_555 1_555
H5 C6 1_555 1_555
C7 C6 1_555 1_555
H6 C7 1_555 1_555
C8 C7 1_555 1_555
H7 C8 1_555 1_555
N3 Mn1 1_555 1_555
N4 N5 1_555 1_555
N5 B1 1_555 1_555
C9 N5 1_555 1_555
H8 C9 1_555 1_555
C10 C9 1_555 1_555
H9 C10 1_555 1_555
C11 N4 1_555 1_555
C12 C11 1_555 1_555
C13 C12 1_555 1_555
H10 C13 1_555 1_555
C14 C13 1_555 1_555
H11 C14 1_555 1_555
C15 C14 1_555 1_555
H12 C15 1_555 1_555
C16 C15 1_555 1_555
H13 C16 1_555 1_555
N6 Mn2 1_555 1_555
N7 N8 1_555 1_555
N8 B1 1_555 1_555
C17 N8 1_555 1_555
H14 C17 1_555 1_555
C18 C17 1_555 1_555
H15 C18 1_555 1_555
C19 N7 1_555 1_555
C20 C19 1_555 1_555
C21 C20 1_555 1_555
H16 C21 1_555 1_555
C22 C21 1_555 1_555
H17 C22 1_555 1_555
C23 C22 1_555 1_555
H18 C23 1_555 1_555
C24 C23 1_555 1_555
H19 C24 1_555 1_555
N9 Mn3 1_555 1_555
B2 H20 1_555 1_555
N10 Mn2 1_555 1_555
N11 B2 1_555 1_555
C25 N11 1_555 1_555
H21 C25 1_555 1_555
C26 C25 1_555 1_555
H22 C26 1_555 1_555
C27 N10 1_555 1_555
C28 C27 1_555 1_555
C29 C28 1_555 1_555
H23 C29 1_555 1_555
C30 C29 1_555 1_555
H24 C30 1_555 1_555
C31 C30 1_555 1_555
H25 C31 1_555 1_555
C32 C31 1_555 1_555
H26 C32 1_555 1_555
N12 Mn2 1_555 1_555
N13 Mn3 1_555 1_555
N14 B2 1_555 1_555
C33 N14 1_555 1_555
H27 C33 1_555 1_555
C34 C33 1_555 1_555
H28 C34 1_555 1_555
C35 N13 1_555 1_555
C36 C35 1_555 1_555
C37 C36 1_555 1_555
H29 C37 1_555 1_555
C38 C37 1_555 1_555
H30 C38 1_555 1_555
C39 C38 1_555 1_555
H31 C39 1_555 1_555
C40 C39 1_555 1_555
H32 C40 1_555 1_555
N15 Mn3 1_555 1_555
N16 N17 1_555 1_555
N17 B2 1_555 1_555
C41 N17 1_555 1_555
H33 C41 1_555 1_555
C42 C41 1_555 1_555
H34 C42 1_555 1_555
C43 N16 1_555 1_555
C44 C43 1_555 1_555
C45 C44 1_555 1_555
H35 C45 1_555 1_555
C46 C45 1_555 1_555
H36 C46 1_555 1_555
C47 C46 1_555 1_555
H37 C47 1_555 1_555
C48 C47 1_555 1_555
H38 C48 1_555 1_555
N18 Mn4 1_555 1_555
B3 H39 1_555 1_555
N19 Mn3 1_555 1_555
N20 B3 1_555 1_555
C49 N20 1_555 1_555
H40 C49 1_555 1_555
C50 C49 1_555 1_555
H41 C50 1_555 1_555
C51 N19 1_555 1_555
C52 C51 1_555 1_555
C53 C52 1_555 1_555
H42 C53 1_555 1_555
C54 C53 1_555 1_555
H43 C54 1_555 1_555
C55 C54 1_555 1_555
H44 C55 1_555 1_555
C56 C55 1_555 1_555
H45 C56 1_555 1_555
N21 Mn3 1_555 1_555
N22 Mn4 1_555 1_555
N23 B3 1_555 1_555
C57 N23 1_555 1_555
H46 C57 1_555 1_555
C58 C57 1_555 1_555
H47 C58 1_555 1_555
C59 N22 1_555 1_555
C60 C59 1_555 1_555
C61 C60 1_555 1_555
H48 C61 1_555 1_555
C62 C61 1_555 1_555
H49 C62 1_555 1_555
C63 C62 1_555 1_555
H50 C63 1_555 1_555
C64 C63 1_555 1_555
H51 C64 1_555 1_555
N24 Mn4 1_555 1_555
N25 Mn1 1_555 1_555
N26 B3 1_555 1_555
C65 N26 1_555 1_555
H52 C65 1_555 1_555
C66 C65 1_555 1_555
H53 C66 1_555 1_555
C67 N25 1_555 1_555
C68 C67 1_555 1_555
C69 C68 1_555 1_555
H54 C69 1_555 1_555
C70 C69 1_555 1_555
H55 C70 1_555 1_555
C71 C70 1_555 1_555
H56 C71 1_555 1_555
C72 C71 1_555 1_555
H57 C72 1_555 1_555
N27 Mn1 1_555 1_555
B4 H58 1_555 1_555
N28 Mn4 1_555 1_555
N29 B4 1_555 1_555
C73 N29 1_555 1_555
H59 C73 1_555 1_555
C74 C73 1_555 1_555
H60 C74 1_555 1_555
C75 N28 1_555 1_555
C76 C75 1_555 1_555
C77 C76 1_555 1_555
H61 C77 1_555 1_555
C78 C77 1_555 1_555
H62 C78 1_555 1_555
C79 C78 1_555 1_555
H63 C79 1_555 1_555
C80 C79 1_555 1_555
H64 C80 1_555 1_555
N30 Mn4 1_555 1_555
N31 Mn1 1_555 1_555
N32 B4 1_555 1_555
C81 N32 1_555 1_555
H65 C81 1_555 1_555
C82 C81 1_555 1_555
H66 C82 1_555 1_555
C83 N31 1_555 1_555
C84 C83 1_555 1_555
C85 C84 1_555 1_555
H67 C85 1_555 1_555
C86 C85 1_555 1_555
H68 C86 1_555 1_555
C87 C86 1_555 1_555
H69 C87 1_555 1_555
C88 C87 1_555 1_555
H70 C88 1_555 1_555
N33 Mn1 1_555 1_555
N34 Mn2 1_555 1_555
N35 B4 1_555 1_555
C89 N35 1_555 1_555
H71 C89 1_555 1_555
C90 C89 1_555 1_555
H72 C90 1_555 1_555
C91 N34 1_555 1_555
C92 C91 1_555 1_555
C93 C92 1_555 1_555
H73 C93 1_555 1_555
C94 C93 1_555 1_555
H74 C94 1_555 1_555
C95 C94 1_555 1_555
H75 C95 1_555 1_555
C96 C95 1_555 1_555
H76 C96 1_555 1_555
N36 Mn2 1_555 1_555
P1 F1 1_555 1_555
F2 P1 1_555 1_555
F3 P1 1_555 1_555
F4 P1 1_555 1_555
F5 P1 1_555 1_555
F6 P1 1_555 1_555
P2 F7 1_555 1_555
F8 P2 1_555 1_555
F9 P2 1_555 1_555
F10 P2 1_555 1_555
F11 P2 1_555 1_555
F12 P2 1_555 1_555
P3 F13 1_555 1_555
F14 P3 1_555 1_555
F15 P3 1_555 1_555
F16 P3 1_555 1_555
F17 P3 1_555 1_555
F18 P3 1_555 1_555
P4 F19 1_555 1_555
F20 P4 1_555 1_555
F21 P4 1_555 1_555
F22 P4 1_555 1_555
F23 P4 1_555 1_555
F24 P4 1_555 1_555
C97 H77 1_555 1_555
H78 C97 1_555 1_555
H79 C97 1_555 1_555
C98 C97 1_555 1_555
N37 C98 1_555 1_555
C99 H80 1_555 1_555
H81 C99 1_555 1_555
H82 C99 1_555 1_555
C100 C99 1_555 1_555
N38 C100 1_555 1_555
C101 H83 1_555 1_555
H84 C101 1_555 1_555
H85 C101 1_555 1_555
C102 C101 1_555 1_555
N39 C102 1_555 1_555
C103 H86 1_555 1_555
H87 C103 1_555 1_555
H88 C103 1_555 1_555
C104 C103 1_555 1_555
N40 C104 1_555 1_555
C105 H89 1_555 1_555
H90 C105 1_555 1_555
H91 C105 1_555 1_555
C106 C105 1_555 1_555
H92 C106 1_555 1_555
H93 C106 1_555 1_555
O1 C106 1_555 1_555
C107 O1 1_555 1_555
H94 C107 1_555 1_555
H95 C107 1_555 1_555
C108 C107 1_555 1_555
H96 C108 1_555 1_555
H97 C108 1_555 1_555
H98 C108 1_555 1_555
C2 C3 1_555 1_555
C4 N3 1_555 1_555
C8 N3 1_555 1_555
C10 C11 1_555 1_555
C12 N6 1_555 1_555
C16 N6 1_555 1_555
C18 C19 1_555 1_555
C20 N9 1_555 1_555
C24 N9 1_555 1_555
N10 N11 1_555 1_555
C26 C27 1_555 1_555
C28 N12 1_555 1_555
C32 N12 1_555 1_555
N13 N14 1_555 1_555
C34 C35 1_555 1_555
C36 N15 1_555 1_555
C40 N15 1_555 1_555
C42 C43 1_555 1_555
C44 N18 1_555 1_555
C48 N18 1_555 1_555
N19 N20 1_555 1_555
C50 C51 1_555 1_555
C52 N21 1_555 1_555
C56 N21 1_555 1_555
N22 N23 1_555 1_555
C58 C59 1_555 1_555
C60 N24 1_555 1_555
C64 N24 1_555 1_555
N25 N26 1_555 1_555
C66 C67 1_555 1_555
C68 N27 1_555 1_555
C72 N27 1_555 1_555
N28 N29 1_555 1_555
C74 C75 1_555 1_555
C76 N30 1_555 1_555
C80 N30 1_555 1_555
N31 N32 1_555 1_555
C82 C83 1_555 1_555
C84 N33 1_555 1_555
C88 N33 1_555 1_555
N34 N35 1_555 1_555
C90 C91 1_555 1_555
C92 N36 1_555 1_555
C96 N36 1_555 1_555

#END
