
#######################################################################
#
#                 Cambridge Crystallographic Data Centre
#                                CCDC 
#
#######################################################################
#
# If this CIF has been generated from an entry in the Cambridge 
# Structural Database, then it will include bibliographic, chemical, 
# crystal, experimental, refinement or atomic coordinate data resulting 
# from the CCDC's data processing and validation procedures.
#
#######################################################################

data_SUWGOI
_chemical_formula_moiety         
'C84 H62 N10 O2 Zn2 4+,C12 H4 N4,4(C2 F6 N1 O4 S2 1-),2(C2 H3 N1),2(H2 O1)'
_chemical_name_systematic        
"bis(\m-N,N'-(pyrene-2,7-diyldi-3,1-phenylene)bis(1-(pyridin-2-yl)methanimine))-diaqua-bis(acetonitrile)-di-zinc(ii) 2,2'-(cyclohexa-2,5-diene-1,4-diylidene)dipropanedinitrile tetrakis(bis((trifluoromethyl)sulfonyl)azanide) acetonitrile solvate dihydrate"
_symmetry_cell_setting           triclinic
_symmetry_space_group_name_H-M   'P -1'
_symmetry_Int_Tables_number      2
_space_group_name_Hall           '-P 1'
loop_
_symmetry_equiv_pos_site_id
_symmetry_equiv_pos_as_xyz
1 x,y,z
2 -x,-y,-z
_cell_length_a                   10.0543(15)
_cell_length_b                   14.692(2)
_cell_length_c                   22.930(3)
_cell_angle_alpha                102.034(7)
_cell_angle_beta                 99.129(6)
_cell_angle_gamma                102.863(6)
_cell_volume                     3154.02
_exptl_crystal_colour            green
_exptl_crystal_description       block
_cell_formula_units_Z            1
_exptl_crystal_recrystallization_method 
'Re-crystallisation from solvent: acetonitrile, benzene'
loop_
_atom_site_label
_atom_site_type_symbol
_atom_site_fract_x
_atom_site_fract_y
_atom_site_fract_z
N6 N 0.3508(7) 0.3448(6) 0.2897(3)
N7 N 0.4633(9) 0.6554(6) 0.3427(4)
C43 C 0.4832(5) 0.4104(4) 0.5132(3)
H30 H 0.4715 0.3499 0.5231
C44 C 0.4528(5) 0.4139(4) 0.4557(3)
H31 H 0.4211 0.3553 0.4245
C45 C 0.4663(5) 0.5021(5) 0.4395(2)
C46 C 0.4324(6) 0.4974(5) 0.3778(3)
C47 C 0.3873(7) 0.4085(6) 0.3273(4)
C48 C 0.4442(8) 0.5823(6) 0.3573(3)
N6A N 0.6492(7) 0.6552(6) 0.7103(3)
N7A N 0.5367(9) 0.3446(6) 0.6573(4)
C43A C 0.5168(5) 0.5896(4) 0.4868(3)
H30A H 0.5285 0.6501 0.4769
C44A C 0.5472(5) 0.5861(4) 0.5443(3)
H31A H 0.5789 0.6447 0.5755
C45A C 0.5337(5) 0.4979(5) 0.5605(2)
C46A C 0.5676(6) 0.5026(5) 0.6222(3)
C47A C 0.6127(7) 0.5915(6) 0.6727(4)
C48A C 0.5558(8) 0.4177(6) 0.6427(3)
S1 S 0.43141(16) 0.06625(13) -0.01548(8)
O2 O 0.2990(8) 0.0733(9) -0.0054(5)
N8 N 0.5429(10) 0.0068(8) -0.0285(4)
C49 C 0.5405(7) 0.1782(5) 0.0375(3)
F1 F 0.5287(14) 0.1931(10) 0.0917(5)
F2 F 0.5285(17) 0.2508(8) 0.0185(6)
F3 F 0.6805(8) 0.1784(9) 0.0438(5)
O3 O 0.3841(15) 0.0897(9) -0.0731(4)
S1A S 0.56859(16) -0.06625(13) 0.01548(8)
O2A O 0.7010(8) -0.0733(9) 0.0054(5)
N8A N 0.4571(10) -0.0068(8) 0.0285(4)
C49A C 0.4595(7) -0.1782(5) -0.0375(3)
F1A F 0.4713(14) -0.1931(10) -0.0917(5)
F2A F 0.4715(17) -0.2508(8) -0.0185(6)
F3A F 0.3195(8) -0.1784(9) -0.0438(5)
O3A O 0.6159(15) -0.0897(9) 0.0731(4)
N9 N 0.8289(10) 0.8258(7) 0.2563(5)
C50 C 0.8299(9) 0.7872(6) 0.2934(5)
C51 C 0.8344(11) 0.7405(6) 0.3417(4)
H32 H 0.8105 0.6705 0.3247
H33 H 0.7672 0.7564 0.3661
H34 H 0.9286 0.7623 0.3676
O4 O 0.1307(9) -0.2992(5) 0.0469(4)
H35 H 0.1038 -0.3616 0.0438
H36 H 0.2226 -0.2770 0.0577
Zn1 Zn 0.16246(6) -0.03144(4) 0.16269(2)
N1 N 0.1250(4) 0.0714(3) 0.11479(14)
N2 N 0.3590(3) 0.0859(2) 0.19672(14)
N3 N 0.9184(3) 0.9697(2) 0.75892(14)
N4 N 0.7849(4) 1.1101(3) 0.77374(16)
N5 N -0.0381(5) -0.1328(3) 0.12094(19)
O1 O 0.2480(4) -0.1055(2) 0.09565(14)
C1 C 0.0116(5) 0.0621(4) 0.07192(17)
H1 H -0.0585 0.0025 0.0583
C2 C -0.0042(6) 0.1389(4) 0.0473(2)
H2 H -0.0847 0.1317 0.0170
C3 C 0.0960(6) 0.2242(4) 0.0668(2)
H3 H 0.0854 0.2770 0.0503
C4 C 0.2114(6) 0.2337(4) 0.1098(2)
H4 H 0.2824 0.2929 0.1236
C5 C 0.2238(5) 0.1560(3) 0.13327(17)
C6 C 0.3483(5) 0.1611(3) 0.17833(17)
H5 H 0.4202 0.2196 0.1937
C7 C 0.4765(4) 0.0897(3) 0.24107(18)
C8 C 0.5290(4) 0.1686(3) 0.29195(17)
H6 H 0.4876 0.2211 0.2962
C9 C 0.6412(4) 0.1703(3) 0.33626(17)
C10 C 0.7006(5) 0.0917(3) 0.3294(2)
H7 H 0.7767 0.0915 0.3597
C11 C 0.6482(5) 0.0148(3) 0.2784(2)
H8 H 0.6901 -0.0375 0.2738
C12 C 0.5369(5) 0.0124(3) 0.2343(2)
H9 H 0.5015 -0.0412 0.1997
C13 C 0.6995(4) 0.2544(3) 0.38983(18)
C14 C 0.7176(4) 0.3478(3) 0.38252(16)
H10 H 0.6910 0.3568 0.3429
C15 C 0.7737(3) 0.4282(3) 0.43181(16)
C16 C 0.8073(3) 0.4135(3) 0.49064(16)
C17 C 0.7885(4) 0.3189(3) 0.49836(17)
C18 C 0.7361(4) 0.2403(3) 0.44753(17)
H11 H 0.7254 0.1766 0.4525
C19 C 0.8577(3) 0.4944(3) 0.54227(16)
C20 C 0.8747(3) 0.5893(3) 0.53437(16)
C21 C 0.9202(4) 0.6679(3) 0.58565(17)
H12 H 0.9295 0.7315 0.5809
C22 C 0.9522(4) 0.6531(3) 0.64424(17)
C23 C 0.9378(4) 0.5613(3) 0.65125(18)
H13 H 0.9608 0.5524 0.6911
C24 C 0.8904(4) 0.4804(3) 0.60155(16)
C25 C 0.7958(4) 0.5255(3) 0.42535(17)
H14 H 0.7758 0.5360 0.3857
C26 C 0.8436(4) 0.6010(3) 0.47349(16)
H15 H 0.8575 0.6643 0.4675
C27 C 0.8226(4) 0.3063(3) 0.55945(17)
H16 H 0.8114 0.2432 0.5654
C28 C 0.8705(4) 0.3841(3) 0.60822(18)
H17 H 0.8914 0.3743 0.6479
C29 C 1.0024(4) 0.7389(3) 0.69800(17)
C30 C 0.9394(4) 0.8140(3) 0.70181(17)
H18 H 0.8637 0.8112 0.6703
C31 C 0.9878(4) 0.8945(3) 0.75251(17)
C32 C 1.0968(4) 0.8982(4) 0.79832(18)
H19 H 1.1288 0.9523 0.8328
C33 C 1.1598(5) 0.8232(4) 0.79416(18)
H20 H 1.2357 0.8259 0.8256
C34 C 1.1128(4) 0.7449(3) 0.74461(18)
H21 H 1.1567 0.6936 0.7422
C35 C 0.8834(5) 1.0019(3) 0.7130(2)
H22 H 0.9056 0.9769 0.6751
C36 C 0.8095(5) 1.0770(3) 0.71837(19)
C37 C 0.7708(6) 1.1129(4) 0.6704(2)
H23 H 0.7937 1.0905 0.6323
C38 C 0.6975(7) 1.1828(4) 0.6773(3)
H24 H 0.6628 1.2052 0.6435
C39 C 0.6771(7) 1.2179(4) 0.7332(3)
H25 H 0.6333 1.2690 0.7401
C40 C 0.7201(6) 1.1794(3) 0.7806(2)
H26 H 0.7025 1.2036 0.8196
C41 C -0.1374(8) -0.1862(6) 0.1105(3)
C42 C -0.2730(10) -0.2609(7) 0.0998(6)
H27 H -0.2562 -0.3163 0.1145
H28 H -0.3153 -0.2820 0.0561
H29 H -0.3364 -0.2333 0.1220
Zn1A Zn 0.83754(6) 1.03144(4) 0.83731(2)
N1A N 0.8750(4) 0.9286(3) 0.88521(14)
N2A N 0.6410(3) 0.9141(2) 0.80328(14)
N3A N 0.0816(3) 0.0303(2) 0.24108(14)
N4A N 0.2151(4) -0.1101(3) 0.22626(16)
N5A N 1.0381(5) 1.1328(3) 0.87906(19)
O1A O 0.7520(4) 1.1055(2) 0.90435(14)
C1A C 0.9884(5) 0.9379(4) 0.92808(17)
H1A H 1.0585 0.9975 0.9417
C2A C 1.0042(6) 0.8611(4) 0.9527(2)
H2A H 1.0847 0.8683 0.9830
C3A C 0.9040(6) 0.7758(4) 0.9332(2)
H3A H 0.9146 0.7230 0.9497
C4A C 0.7886(6) 0.7663(4) 0.8902(2)
H4A H 0.7176 0.7071 0.8764
C5A C 0.7762(5) 0.8440(3) 0.86673(17)
C6A C 0.6517(5) 0.8389(3) 0.82167(17)
H5A H 0.5798 0.7804 0.8063
C7A C 0.5235(4) 0.9103(3) 0.75893(18)
C8A C 0.4710(4) 0.8314(3) 0.70805(17)
H6A H 0.5124 0.7789 0.7038
C9A C 0.3588(4) 0.8297(3) 0.66374(17)
C10A C 0.2994(5) 0.9083(3) 0.6706(2)
H7A H 0.2233 0.9085 0.6403
C11A C 0.3518(5) 0.9852(3) 0.7216(2)
H8A H 0.3099 1.0375 0.7262
C12A C 0.4631(5) 0.9876(3) 0.7657(2)
H9A H 0.4985 1.0412 0.8003
C13A C 0.3005(4) 0.7456(3) 0.61017(18)
C14A C 0.2824(4) 0.6522(3) 0.61748(16)
H10A H 0.3090 0.6432 0.6571
C15A C 0.2263(3) 0.5718(3) 0.56819(16)
C16A C 0.1927(3) 0.5865(3) 0.50936(16)
C17A C 0.2115(4) 0.6811(3) 0.50164(17)
C18A C 0.2639(4) 0.7597(3) 0.55247(17)
H11A H 0.2746 0.8234 0.5475
C19A C 0.1423(3) 0.5056(3) 0.45773(16)
C20A C 0.1253(3) 0.4107(3) 0.46563(16)
C21A C 0.0798(4) 0.3321(3) 0.41435(17)
H12A H 0.0705 0.2685 0.4191
C22A C 0.0478(4) 0.3469(3) 0.35576(17)
C23A C 0.0622(4) 0.4387(3) 0.34875(18)
H13A H 0.0392 0.4476 0.3089
C24A C 0.1096(4) 0.5196(3) 0.39845(16)
C25A C 0.2042(4) 0.4745(3) 0.57465(17)
H14A H 0.2242 0.4640 0.6143
C26A C 0.1564(4) 0.3990(3) 0.52651(16)
H15A H 0.1425 0.3357 0.5325
C27A C 0.1774(4) 0.6937(3) 0.44055(17)
H16A H 0.1886 0.7568 0.4346
C28A C 0.1295(4) 0.6159(3) 0.39178(18)
H17A H 0.1086 0.6257 0.3521
C29A C -0.0024(4) 0.2611(3) 0.30200(17)
C30A C 0.0606(4) 0.1860(3) 0.29819(17)
H18A H 0.1363 0.1888 0.3297
C31A C 0.0122(4) 0.1055(3) 0.24749(17)
C32A C -0.0968(4) 0.1018(4) 0.20168(18)
H19A H -0.1288 0.0477 0.1672
C33A C -0.1598(5) 0.1768(4) 0.20584(18)
H20A H -0.2357 0.1741 0.1744
C34A C -0.1128(4) 0.2551(3) 0.25539(18)
H21A H -0.1567 0.3064 0.2578
C35A C 0.1166(5) -0.0019(3) 0.2870(2)
H22A H 0.0944 0.0231 0.3249
C36A C 0.1905(5) -0.0770(3) 0.28163(19)
C37A C 0.2292(6) -0.1129(4) 0.3296(2)
H23A H 0.2063 -0.0905 0.3677
C38A C 0.3025(7) -0.1828(4) 0.3227(3)
H24A H 0.3372 -0.2052 0.3565
C39A C 0.3229(7) -0.2179(4) 0.2668(3)
H25A H 0.3667 -0.2690 0.2599
C40A C 0.2799(6) -0.1794(3) 0.2194(2)
H26A H 0.2975 -0.2036 0.1804
C41A C 1.1374(8) 1.1862(6) 0.8895(3)
C42A C 1.2730(10) 1.2609(7) 0.9002(6)
H27A H 1.2562 1.3163 0.8855
H28A H 1.3153 1.2820 0.9439
H29A H 1.3364 1.2333 0.8780
O5? O 0.3204(10) 0.0260(10) 0.0097(6)
F4? F 0.5592(16) 0.1570(12) 0.0896(6)
F5? F 0.4535(15) 0.2403(8) 0.0366(5)
F6? F 0.6475(15) 0.2172(10) 0.0199(7)
O6? O 0.4811(9) 0.0555(7) -0.0675(3)
loop_
_geom_bond_atom_site_label_1
_geom_bond_atom_site_label_2
_geom_bond_site_symmetry_1
_geom_bond_site_symmetry_2
Zn1 N1 1_555 1_555
N1 C1 1_555 1_555
N2 Zn1 1_555 1_555
N3 C31 1_555 1_555
N4 C36 1_555 1_555
N5 Zn1 1_555 1_555
O1 Zn1 1_555 1_555
C1 H1 1_555 1_555
C2 C1 1_555 1_555
H2 C2 1_555 1_555
C3 C2 1_555 1_555
H3 C3 1_555 1_555
C4 C3 1_555 1_555
H4 C4 1_555 1_555
C5 N1 1_555 1_555
C6 N2 1_555 1_555
H5 C6 1_555 1_555
C7 N2 1_555 1_555
C8 C7 1_555 1_555
H6 C8 1_555 1_555
C9 C8 1_555 1_555
C10 C9 1_555 1_555
H7 C10 1_555 1_555
C11 C10 1_555 1_555
H8 C11 1_555 1_555
C12 C7 1_555 1_555
H9 C12 1_555 1_555
C13 C9 1_555 1_555
C14 C13 1_555 1_555
H10 C14 1_555 1_555
C15 C14 1_555 1_555
C16 C15 1_555 1_555
C17 C16 1_555 1_555
C18 C13 1_555 1_555
H11 C18 1_555 1_555
C19 C16 1_555 1_555
C20 C19 1_555 1_555
C21 C20 1_555 1_555
H12 C21 1_555 1_555
C22 C21 1_555 1_555
C23 C22 1_555 1_555
H13 C23 1_555 1_555
C24 C19 1_555 1_555
C25 C15 1_555 1_555
H14 C25 1_555 1_555
C26 C20 1_555 1_555
H15 C26 1_555 1_555
C27 C17 1_555 1_555
H16 C27 1_555 1_555
C28 C24 1_555 1_555
H17 C28 1_555 1_555
C29 C22 1_555 1_555
C30 C29 1_555 1_555
H18 C30 1_555 1_555
C31 C30 1_555 1_555
C32 C31 1_555 1_555
H19 C32 1_555 1_555
C33 C32 1_555 1_555
H20 C33 1_555 1_555
C34 C29 1_555 1_555
H21 C34 1_555 1_555
C35 N3 1_555 1_555
H22 C35 1_555 1_555
C36 C35 1_555 1_555
C37 C36 1_555 1_555
H23 C37 1_555 1_555
C38 C37 1_555 1_555
H24 C38 1_555 1_555
C39 C38 1_555 1_555
H25 C39 1_555 1_555
C40 N4 1_555 1_555
H26 C40 1_555 1_555
C41 N5 1_555 1_555
C42 C41 1_555 1_555
H27 C42 1_555 1_555
H28 C42 1_555 1_555
H29 C42 1_555 1_555
N6 C47 1_555 1_555
N7 C48 1_555 1_555
C43 H30 1_555 1_555
C44 C43 1_555 1_555
H31 C44 1_555 1_555
C45 C44 1_555 1_555
C46 C45 1_555 1_555
C47 C46 1_555 1_555
C48 C46 1_555 1_555
S1 O2 1_555 1_555
N8 S1 1_555 1_555
C49 S1 1_555 1_555
F1 C49 1_555 1_555
F2 C49 1_555 1_555
F3 C49 1_555 1_555
O3 S1 1_555 1_555
N9 C50 1_555 1_555
C50 C51 1_555 1_555
C51 H32 1_555 1_555
H33 C51 1_555 1_555
H34 C51 1_555 1_555
O4 H35 1_555 1_555
H36 O4 1_555 1_555
Zn1A N3 1_555 1_555
N1A Zn1A 1_555 1_555
N2A Zn1A 1_555 1_555
N3A Zn1 1_555 1_555
N4A Zn1 1_555 1_555
N5A Zn1A 1_555 1_555
O1A Zn1A 1_555 1_555
C1A N1A 1_555 1_555
H1A C1A 1_555 1_555
C2A C1A 1_555 1_555
H2A C2A 1_555 1_555
C3A C2A 1_555 1_555
H3A C3A 1_555 1_555
C4A C3A 1_555 1_555
H4A C4A 1_555 1_555
C5A N1A 1_555 1_555
C6A N2A 1_555 1_555
H5A C6A 1_555 1_555
C7A N2A 1_555 1_555
C8A C7A 1_555 1_555
H6A C8A 1_555 1_555
C9A C8A 1_555 1_555
C10A C9A 1_555 1_555
H7A C10A 1_555 1_555
C11A C10A 1_555 1_555
H8A C11A 1_555 1_555
C12A C7A 1_555 1_555
H9A C12A 1_555 1_555
C13A C9A 1_555 1_555
C14A C13A 1_555 1_555
H10A C14A 1_555 1_555
C15A C14A 1_555 1_555
C16A C15A 1_555 1_555
C17A C16A 1_555 1_555
C18A C13A 1_555 1_555
H11A C18A 1_555 1_555
C19A C16A 1_555 1_555
C20A C19A 1_555 1_555
C21A C20A 1_555 1_555
H12A C21A 1_555 1_555
C22A C21A 1_555 1_555
C23A C22A 1_555 1_555
H13A C23A 1_555 1_555
C24A C19A 1_555 1_555
C25A C15A 1_555 1_555
H14A C25A 1_555 1_555
C26A C20A 1_555 1_555
H15A C26A 1_555 1_555
C27A C17A 1_555 1_555
H16A C27A 1_555 1_555
C28A C24A 1_555 1_555
H17A C28A 1_555 1_555
C29A C22A 1_555 1_555
C30A C29A 1_555 1_555
H18A C30A 1_555 1_555
C31A N3A 1_555 1_555
C32A C31A 1_555 1_555
H19A C32A 1_555 1_555
C33A C32A 1_555 1_555
H20A C33A 1_555 1_555
C34A C29A 1_555 1_555
H21A C34A 1_555 1_555
C35A N3A 1_555 1_555
H22A C35A 1_555 1_555
C36A N4A 1_555 1_555
C37A C36A 1_555 1_555
H23A C37A 1_555 1_555
C38A C37A 1_555 1_555
H24A C38A 1_555 1_555
C39A C38A 1_555 1_555
H25A C39A 1_555 1_555
C40A N4A 1_555 1_555
H26A C40A 1_555 1_555
C41A N5A 1_555 1_555
C42A C41A 1_555 1_555
H27A C42A 1_555 1_555
H28A C42A 1_555 1_555
H29A C42A 1_555 1_555
N6A C47A 1_555 1_555
N7A C48A 1_555 1_555
C43A C45 1_555 1_555
H30A C43A 1_555 1_555
C44A C43A 1_555 1_555
H31A C44A 1_555 1_555
C45A C43 1_555 1_555
C46A C45A 1_555 1_555
C47A C46A 1_555 1_555
C48A C46A 1_555 1_555
S1A N8 1_555 1_555
O2A S1A 1_555 1_555
N8A S1 1_555 1_555
C49A S1A 1_555 1_555
F1A C49A 1_555 1_555
F2A C49A 1_555 1_555
F3A C49A 1_555 1_555
O3A S1A 1_555 1_555
N4 Zn1A 1_555 1_555
C4 C5 1_555 1_555
C5 C6 1_555 1_555
C11 C12 1_555 1_555
C17 C18 1_555 1_555
C23 C24 1_555 1_555
C25 C26 1_555 1_555
C27 C28 1_555 1_555
C33 C34 1_555 1_555
C39 C40 1_555 1_555
N8 N8A 1_555 1_555
C4A C5A 1_555 1_555
C5A C6A 1_555 1_555
C11A C12A 1_555 1_555
C17A C18A 1_555 1_555
C23A C24A 1_555 1_555
C25A C26A 1_555 1_555
C27A C28A 1_555 1_555
C30A C31A 1_555 1_555
C33A C34A 1_555 1_555
C35A C36A 1_555 1_555
C39A C40A 1_555 1_555
C44A C45A 1_555 1_555
S1A N8A 1_555 1_555

#END
