
#######################################################################
#
#                 Cambridge Crystallographic Data Centre
#                                CCDC 
#
#######################################################################
#
# If this CIF has been generated from an entry in the Cambridge 
# Structural Database, then it will include bibliographic, chemical, 
# crystal, experimental, refinement or atomic coordinate data resulting 
# from the CCDC's data processing and validation procedures.
#
#######################################################################

data_SUWGUO
_chemical_formula_moiety         
'C88 H64 N12 Zn2 4+,2(C6 H6),4(As1 F6 1-),4(C2 H3 N1)'
_chemical_name_systematic        
"bis(\m-N,N'-(pyrene-2,7-diyldi-3,1-phenylene)bis(1-(pyridin-2-yl)methanimine))-tetrakis(acetonitrile)-di-zinc(ii) tetrakis(hexafluoroarsenate)  acetonitrile benzene solvate"
_symmetry_cell_setting           monoclinic
_symmetry_space_group_name_H-M   'P 21/n'
_symmetry_Int_Tables_number      14
_space_group_name_Hall           '-P 2yn'
loop_
_symmetry_equiv_pos_site_id
_symmetry_equiv_pos_as_xyz
1 x,y,z
2 1/2-x,1/2+y,1/2-z
3 -x,-y,-z
4 1/2+x,1/2-y,1/2+z
_cell_length_a                   10.2670(3)
_cell_length_b                   28.1379(7)
_cell_length_c                   18.4589(5)
_cell_angle_alpha                90
_cell_angle_beta                 101.3570(10)
_cell_angle_gamma                90
_cell_volume                     5228.21
_exptl_crystal_colour            'pale yellow'
_exptl_crystal_description       block
_cell_formula_units_Z            2
_exptl_crystal_recrystallization_method 
'Re-crystallisation from solvent: acetonitrile, benzene'
loop_
_atom_site_label
_atom_site_type_symbol
_atom_site_fract_x
_atom_site_fract_y
_atom_site_fract_z
Zn1 Zn 0.43519(7) 0.16966(2) 0.48629(4)
N1 N 0.5258(4) 0.17558(14) 0.5974(2)
N2 N 0.3307(4) 0.23134(14) 0.5247(2)
N3 N 0.4183(4) 0.78222(13) 0.5497(2)
N4 N 0.6411(4) 0.82235(14) 0.6270(2)
N5 N 0.5455(5) 0.10841(16) 0.4659(3)
N6 N 0.2701(5) 0.12554(16) 0.5038(3)
C1 C 0.6196(5) 0.14660(19) 0.6346(3)
H1 H 0.6438 0.1191 0.6104
C2 C 0.6823(6) 0.1553(2) 0.7068(3)
H2 H 0.7500 0.1346 0.7313
C3 C 0.6451(5) 0.1943(2) 0.7424(3)
H3 H 0.6863 0.2010 0.7921
C4 C 0.5468(5) 0.22383(19) 0.7049(3)
H4 H 0.5190 0.2508 0.7288
C5 C 0.4894(5) 0.21373(18) 0.6327(3)
C6 C 0.3825(5) 0.24289(17) 0.5906(3)
H5 H 0.3522 0.2703 0.6124
C7 C 0.2246(5) 0.25959(17) 0.4835(3)
C8 C 0.2277(5) 0.30886(17) 0.4878(3)
H6 H 0.2994 0.3244 0.5193
C9 C 0.1259(5) 0.33537(17) 0.4462(3)
C10 C 0.0200(5) 0.31169(18) 0.4018(3)
H7 H -0.0507 0.3295 0.3735
C11 C 0.0170(5) 0.26263(18) 0.3988(3)
H8 H -0.0568 0.2469 0.3692
C12 C 0.1197(5) 0.23643(18) 0.4381(3)
H9 H 0.1192 0.2028 0.4344
C13 C 0.1301(5) 0.38819(17) 0.4496(3)
C14 C 0.1726(5) 0.41142(17) 0.5164(3)
H10 H 0.1987 0.3931 0.5601
C15 C 0.1780(4) 0.46076(17) 0.5214(3)
C16 C 0.1400(4) 0.48810(17) 0.4555(2)
C17 C 0.0957(4) 0.46479(17) 0.3871(3)
C18 C 0.0912(5) 0.41504(17) 0.3855(3)
H11 H 0.0611 0.3993 0.3398
C19 C 0.1438(4) 0.53846(17) 0.4584(2)
C20 C 0.1907(4) 0.56231(17) 0.5266(3)
C21 C 0.1990(5) 0.61153(17) 0.5274(3)
H12 H 0.2333 0.6272 0.5727
C22 C 0.1587(5) 0.63856(18) 0.4642(3)
C23 C 0.1078(5) 0.61528(17) 0.3978(3)
H13 H 0.0765 0.6336 0.3546
C24 C 0.1015(4) 0.56594(17) 0.3932(3)
C25 C 0.0600(5) 0.54106(18) 0.3247(3)
H14 H 0.0331 0.5587 0.2804
C26 C 0.0581(5) 0.49306(18) 0.3218(3)
H15 H 0.0313 0.4777 0.2754
C27 C 0.2201(5) 0.48580(17) 0.5897(3)
H16 H 0.2440 0.4682 0.6343
C28 C 0.2265(5) 0.53335(18) 0.5922(3)
H17 H 0.2555 0.5485 0.6385
C29 C 0.1716(5) 0.69078(18) 0.4663(3)
C30 C 0.2849(5) 0.71203(17) 0.5060(3)
H18 H 0.3537 0.6926 0.5325
C31 C 0.3007(5) 0.76072(18) 0.5082(3)
C32 C 0.2008(5) 0.78974(18) 0.4686(3)
H19 H 0.2112 0.8233 0.4691
C33 C 0.0877(5) 0.76922(18) 0.4288(3)
H20 H 0.0193 0.7888 0.4021
C34 C 0.0720(5) 0.72072(18) 0.4272(3)
H21 H -0.0069 0.7072 0.3993
C35 C 0.4570(5) 0.76967(17) 0.6168(3)
H22 H 0.4089 0.7462 0.6377
C36 C 0.5753(5) 0.79130(18) 0.6619(3)
C37 C 0.6132(6) 0.7817(2) 0.7357(3)
H23 H 0.5658 0.7591 0.7586
C38 C 0.7208(6) 0.8052(2) 0.7764(3)
H24 H 0.7480 0.7994 0.8279
C39 C 0.7875(6) 0.8370(2) 0.7417(3)
H25 H 0.8628 0.8533 0.7685
C40 C 0.7449(6) 0.8450(2) 0.6681(3)
H26 H 0.7909 0.8678 0.6446
C41 C 0.5907(6) 0.0789(2) 0.4381(3)
C42 C 0.6490(7) 0.0406(2) 0.4020(4)
H27 H 0.7111 0.0540 0.3733
H28 H 0.5786 0.0233 0.3689
H29 H 0.6968 0.0188 0.4395
C43 C 0.1726(7) 0.1079(2) 0.5051(3)
C44 C 0.0419(7) 0.0853(3) 0.5041(4)
H30 H -0.0183 0.0926 0.4573
H31 H 0.0044 0.0976 0.5453
H32 H 0.0533 0.0508 0.5092
Zn1B Zn 0.56481(7) 0.83034(2) 0.51371(4)
N1B N 0.4742(4) 0.82442(14) 0.4026(2)
N2B N 0.6693(4) 0.76866(14) 0.4753(2)
N3B N 0.5817(4) 0.21778(13) 0.4503(2)
N4B N 0.3589(4) 0.17765(14) 0.3730(2)
N5B N 0.4545(5) 0.89159(16) 0.5341(3)
N6B N 0.7299(5) 0.87446(16) 0.4962(3)
C1B C 0.3804(5) 0.85340(19) 0.3654(3)
H1B H 0.3562 0.8809 0.3896
C2B C 0.3177(6) 0.8447(2) 0.2932(3)
H2B H 0.2500 0.8654 0.2687
C3B C 0.3549(5) 0.8057(2) 0.2576(3)
H3B H 0.3137 0.7990 0.2079
C4B C 0.4532(5) 0.77617(19) 0.2951(3)
H4B H 0.4810 0.7492 0.2712
C5B C 0.5106(5) 0.78627(18) 0.3673(3)
C6B C 0.6175(5) 0.75711(17) 0.4094(3)
H5B H 0.6478 0.7297 0.3876
C7B C 0.7754(5) 0.74041(17) 0.5165(3)
C8B C 0.7723(5) 0.69114(17) 0.5122(3)
H6B H 0.7006 0.6756 0.4807
C9B C 0.8741(5) 0.66463(17) 0.5538(3)
C10B C 0.9800(5) 0.68831(18) 0.5982(3)
H7B H 1.0507 0.6705 0.6265
C11B C 0.9830(5) 0.73737(18) 0.6012(3)
H8B H 1.0568 0.7531 0.6308
C12B C 0.8803(5) 0.76357(18) 0.5619(3)
H9B H 0.8808 0.7972 0.5656
C13B C 0.8699(5) 0.61181(17) 0.5504(3)
C14B C 0.8274(5) 0.58858(17) 0.4836(3)
H10B H 0.8013 0.6069 0.4399
C15B C 0.8220(4) 0.53924(17) 0.4786(3)
C16B C 0.8600(4) 0.51190(17) 0.5445(2)
C17B C 0.9043(4) 0.53521(17) 0.6129(3)
C18B C 0.9088(5) 0.58496(17) 0.6145(3)
H11B H 0.9389 0.6007 0.6602
C19B C 0.8562(4) 0.46154(17) 0.5416(2)
C20B C 0.8093(4) 0.43769(17) 0.4734(3)
C21B C 0.8010(5) 0.38847(17) 0.4726(3)
H12B H 0.7667 0.3728 0.4273
C22B C 0.8413(5) 0.36144(18) 0.5358(3)
C23B C 0.8922(5) 0.38472(17) 0.6022(3)
H13B H 0.9235 0.3664 0.6454
C24B C 0.8985(4) 0.43406(17) 0.6068(3)
C25B C 0.9400(5) 0.45894(18) 0.6753(3)
H14B H 0.9669 0.4413 0.7196
C26B C 0.9419(5) 0.50694(18) 0.6782(3)
H15B H 0.9687 0.5223 0.7246
C27B C 0.7799(5) 0.51420(17) 0.4103(3)
H16B H 0.7560 0.5318 0.3657
C28B C 0.7735(5) 0.46665(18) 0.4078(3)
H17B H 0.7445 0.4515 0.3615
C29B C 0.8284(5) 0.30922(18) 0.5337(3)
C30B C 0.7151(5) 0.28797(17) 0.4940(3)
H18B H 0.6463 0.3074 0.4675
C31B C 0.6993(5) 0.23928(18) 0.4918(3)
C32B C 0.7992(5) 0.21026(18) 0.5314(3)
H19B H 0.7888 0.1767 0.5309
C33B C 0.9123(5) 0.23078(18) 0.5712(3)
H20B H 0.9807 0.2112 0.5979
C34B C 0.9280(5) 0.27928(18) 0.5728(3)
H21B H 1.0069 0.2928 0.6007
C35B C 0.5430(5) 0.23033(17) 0.3832(3)
H22B H 0.5911 0.2538 0.3623
C36B C 0.4247(5) 0.20870(18) 0.3381(3)
C37B C 0.3868(6) 0.2183(2) 0.2643(3)
H23B H 0.4342 0.2409 0.2414
C38B C 0.2792(6) 0.1948(2) 0.2236(3)
H24B H 0.2520 0.2006 0.1721
C39B C 0.2125(6) 0.1630(2) 0.2583(3)
H25B H 0.1372 0.1467 0.2315
C40B C 0.2551(6) 0.1550(2) 0.3319(3)
H26B H 0.2091 0.1322 0.3554
C41B C 0.4093(6) 0.9211(2) 0.5619(3)
C42B C 0.3510(7) 0.9594(2) 0.5980(4)
H27B H 0.2889 0.9460 0.6267
H28B H 0.4214 0.9767 0.6311
H29B H 0.3032 0.9812 0.5605
C43B C 0.8274(7) 0.8921(2) 0.4949(3)
C44B C 0.9581(7) 0.9147(3) 0.4959(4)
H30B H 1.0183 0.9074 0.5427
H31B H 0.9956 0.9024 0.4547
H32B H 0.9467 0.9492 0.4908
C45 C 1.0623(4) 0.1019(2) 0.7207(3)
H33 H 0.9731 0.0944 0.7233
C46 C 1.1462(6) 0.06660(15) 0.7037(3)
H34 H 1.1144 0.0350 0.6946
C47 C 1.2767(5) 0.07754(18) 0.6999(3)
H35 H 1.3341 0.0534 0.6882
C48 C 1.3233(4) 0.1237(2) 0.7131(3)
H36 H 1.4125 0.1312 0.7106
C49 C 1.2394(6) 0.15899(15) 0.7302(3)
H37 H 1.2712 0.1906 0.7392
C50 C 1.1089(5) 0.14805(18) 0.7339(3)
H38 H 1.0515 0.1721 0.7456
As1 As 1.22501(6) 0.84775(2) 0.73072(3)
F1 F 1.1887(5) 0.90451(16) 0.7409(3)
F2 F 1.2642(5) 0.78964(15) 0.7216(3)
F3 F 1.3826(5) 0.86382(19) 0.7231(4)
F4 F 1.2836(7) 0.8413(2) 0.8232(3)
F5 F 1.0753(5) 0.8284(2) 0.7405(4)
F6 F 1.1810(8) 0.8511(2) 0.6385(3)
As2 As 0.75403(8) 0.00542(2) 0.63773(4)
F11 F 0.8095(5) 0.02895(17) 0.7223(2)
F12 F 0.9007(5) -0.0208(2) 0.6392(3)
F13 F 0.6959(5) -0.04317(14) 0.6766(2)
F14 F 0.6939(6) -0.01706(17) 0.5528(2)
F15 F 0.6061(4) 0.03261(14) 0.6365(3)
F16 F 0.8080(4) 0.05495(14) 0.5976(2)
N7 N 0.5760(5) 0.6642(2) 0.6336(3)
C51 C 0.5699(6) 0.6252(3) 0.6180(3)
C52 C 0.5634(6) 0.5757(2) 0.5993(4)
H39 H 0.5975 0.5569 0.6436
H40 H 0.6172 0.5696 0.5619
H41 H 0.4709 0.5669 0.5795
N8 N 0.9806(6) 0.8652(3) 0.9207(3)
C53 C 0.9624(6) 0.9003(3) 0.8916(4)
C54 C 0.9388(8) 0.9440(3) 0.8517(6)
H42 H 0.9933 0.9451 0.8137
H43 H 0.9622 0.9708 0.8858
H44 H 0.8447 0.9462 0.8281
loop_
_geom_bond_atom_site_label_1
_geom_bond_atom_site_label_2
_geom_bond_site_symmetry_1
_geom_bond_site_symmetry_2
Zn1 N1 1_555 1_555
N1 C1 1_555 1_555
N2 Zn1 1_555 1_555
N3 C31 1_555 1_555
N4 C36 1_555 1_555
N5 Zn1 1_555 1_555
N6 Zn1 1_555 1_555
C1 H1 1_555 1_555
C2 C1 1_555 1_555
H2 C2 1_555 1_555
C3 C2 1_555 1_555
H3 C3 1_555 1_555
C4 C3 1_555 1_555
H4 C4 1_555 1_555
C5 N1 1_555 1_555
C6 N2 1_555 1_555
H5 C6 1_555 1_555
C7 N2 1_555 1_555
C8 C7 1_555 1_555
H6 C8 1_555 1_555
C9 C8 1_555 1_555
C10 C9 1_555 1_555
H7 C10 1_555 1_555
C11 C10 1_555 1_555
H8 C11 1_555 1_555
C12 C7 1_555 1_555
H9 C12 1_555 1_555
C13 C9 1_555 1_555
C14 C13 1_555 1_555
H10 C14 1_555 1_555
C15 C14 1_555 1_555
C16 C15 1_555 1_555
C17 C16 1_555 1_555
C18 C13 1_555 1_555
H11 C18 1_555 1_555
C19 C16 1_555 1_555
C20 C19 1_555 1_555
C21 C20 1_555 1_555
H12 C21 1_555 1_555
C22 C21 1_555 1_555
C23 C22 1_555 1_555
H13 C23 1_555 1_555
C24 C19 1_555 1_555
C25 C24 1_555 1_555
H14 C25 1_555 1_555
C26 C17 1_555 1_555
H15 C26 1_555 1_555
C27 C15 1_555 1_555
H16 C27 1_555 1_555
C28 C20 1_555 1_555
H17 C28 1_555 1_555
C29 C22 1_555 1_555
C30 C29 1_555 1_555
H18 C30 1_555 1_555
C31 C30 1_555 1_555
C32 C31 1_555 1_555
H19 C32 1_555 1_555
C33 C32 1_555 1_555
H20 C33 1_555 1_555
C34 C29 1_555 1_555
H21 C34 1_555 1_555
C35 N3 1_555 1_555
H22 C35 1_555 1_555
C36 C35 1_555 1_555
C37 C36 1_555 1_555
H23 C37 1_555 1_555
C38 C37 1_555 1_555
H24 C38 1_555 1_555
C39 C38 1_555 1_555
H25 C39 1_555 1_555
C40 N4 1_555 1_555
H26 C40 1_555 1_555
C41 N5 1_555 1_555
C42 C41 1_555 1_555
H27 C42 1_555 1_555
H28 C42 1_555 1_555
H29 C42 1_555 1_555
C43 N6 1_555 1_555
C44 C43 1_555 1_555
H30 C44 1_555 1_555
H31 C44 1_555 1_555
H32 C44 1_555 1_555
C45 H33 1_555 1_555
C46 C45 1_555 1_555
H34 C46 1_555 1_555
C47 C46 1_555 1_555
H35 C47 1_555 1_555
C48 C47 1_555 1_555
H36 C48 1_555 1_555
C49 C48 1_555 1_555
H37 C49 1_555 1_555
C50 C45 1_555 1_555
H38 C50 1_555 1_555
As1 F1 1_555 1_555
F2 As1 1_555 1_555
F3 As1 1_555 1_555
F4 As1 1_555 1_555
F5 As1 1_555 1_555
F6 As1 1_555 1_555
As2 F11 1_555 1_555
F12 As2 1_555 1_555
F13 As2 1_555 1_555
F14 As2 1_555 1_555
F15 As2 1_555 1_555
F16 As2 1_555 1_555
N7 C51 1_555 1_555
C51 C52 1_555 1_555
C52 H39 1_555 1_555
H40 C52 1_555 1_555
H41 C52 1_555 1_555
N8 C53 1_555 1_555
C53 C54 1_555 1_555
C54 H42 1_555 1_555
H43 C54 1_555 1_555
H44 C54 1_555 1_555
Zn1B N3 1_555 1_555
N1B Zn1B 1_555 1_555
N2B Zn1B 1_555 1_555
N3B Zn1 1_555 1_555
N4B Zn1 1_555 1_555
N5B Zn1B 1_555 1_555
N6B Zn1B 1_555 1_555
C1B N1B 1_555 1_555
H1B C1B 1_555 1_555
C2B C1B 1_555 1_555
H2B C2B 1_555 1_555
C3B C2B 1_555 1_555
H3B C3B 1_555 1_555
C4B C3B 1_555 1_555
H4B C4B 1_555 1_555
C5B N1B 1_555 1_555
C6B N2B 1_555 1_555
H5B C6B 1_555 1_555
C7B N2B 1_555 1_555
C8B C7B 1_555 1_555
H6B C8B 1_555 1_555
C9B C8B 1_555 1_555
C10B C9B 1_555 1_555
H7B C10B 1_555 1_555
C11B C10B 1_555 1_555
H8B C11B 1_555 1_555
C12B C7B 1_555 1_555
H9B C12B 1_555 1_555
C13B C9B 1_555 1_555
C14B C13B 1_555 1_555
H10B C14B 1_555 1_555
C15B C14B 1_555 1_555
C16B C15B 1_555 1_555
C17B C16B 1_555 1_555
C18B C13B 1_555 1_555
H11B C18B 1_555 1_555
C19B C16B 1_555 1_555
C20B C19B 1_555 1_555
C21B C20B 1_555 1_555
H12B C21B 1_555 1_555
C22B C21B 1_555 1_555
C23B C22B 1_555 1_555
H13B C23B 1_555 1_555
C24B C19B 1_555 1_555
C25B C24B 1_555 1_555
H14B C25B 1_555 1_555
C26B C17B 1_555 1_555
H15B C26B 1_555 1_555
C27B C15B 1_555 1_555
H16B C27B 1_555 1_555
C28B C20B 1_555 1_555
H17B C28B 1_555 1_555
C29B C22B 1_555 1_555
C30B C29B 1_555 1_555
H18B C30B 1_555 1_555
C31B N3B 1_555 1_555
C32B C31B 1_555 1_555
H19B C32B 1_555 1_555
C33B C32B 1_555 1_555
H20B C33B 1_555 1_555
C34B C29B 1_555 1_555
H21B C34B 1_555 1_555
C35B N3B 1_555 1_555
H22B C35B 1_555 1_555
C36B N4B 1_555 1_555
C37B C36B 1_555 1_555
H23B C37B 1_555 1_555
C38B C37B 1_555 1_555
H24B C38B 1_555 1_555
C39B C38B 1_555 1_555
H25B C39B 1_555 1_555
C40B N4B 1_555 1_555
H26B C40B 1_555 1_555
C41B N5B 1_555 1_555
C42B C41B 1_555 1_555
H27B C42B 1_555 1_555
H28B C42B 1_555 1_555
H29B C42B 1_555 1_555
C43B N6B 1_555 1_555
C44B C43B 1_555 1_555
H30B C44B 1_555 1_555
H31B C44B 1_555 1_555
H32B C44B 1_555 1_555
N4 Zn1B 1_555 1_555
C4 C5 1_555 1_555
C5 C6 1_555 1_555
C11 C12 1_555 1_555
C17 C18 1_555 1_555
C23 C24 1_555 1_555
C25 C26 1_555 1_555
C27 C28 1_555 1_555
C33 C34 1_555 1_555
C39 C40 1_555 1_555
C49 C50 1_555 1_555
C4B C5B 1_555 1_555
C5B C6B 1_555 1_555
C11B C12B 1_555 1_555
C17B C18B 1_555 1_555
C23B C24B 1_555 1_555
C25B C26B 1_555 1_555
C27B C28B 1_555 1_555
C30B C31B 1_555 1_555
C33B C34B 1_555 1_555
C35B C36B 1_555 1_555
C39B C40B 1_555 1_555

#END
