
#######################################################################
#
#                 Cambridge Crystallographic Data Centre
#                                CCDC 
#
#######################################################################
#
# If this CIF has been generated from an entry in the Cambridge 
# Structural Database, then it will include bibliographic, chemical, 
# crystal, experimental, refinement or atomic coordinate data resulting 
# from the CCDC's data processing and validation procedures.
#
#######################################################################

data_SUXMUU
_chemical_formula_moiety         
'C88 H72 B2 Fe2 N26 Ni2 2+,2(F6 P1 1-),4(C2 H3 N1),2(H2 O1)'
_chemical_name_systematic        
"tetrakis(\m~2~-cyano)-dicyano-bis(hydrogen tris(pyrazol-1-yl)borate)-bis(N,N'-bis(pyridin-2-ylmethyl)-1,1'-binaphthyl-2,2'-diamine)-di-iron(iii)-di-nickel(ii) bis(hexafluorophosphate) acetonitrile solvate dihydrate"
_symmetry_cell_setting           triclinic
_symmetry_space_group_name_H-M   'P -1'
_symmetry_Int_Tables_number      2
_space_group_name_Hall           '-P 1'
loop_
_symmetry_equiv_pos_site_id
_symmetry_equiv_pos_as_xyz
1 x,y,z
2 -x,-y,-z
_cell_length_a                   9.212(4)
_cell_length_b                   13.535(6)
_cell_length_c                   20.115(9)
_cell_angle_alpha                101.840(6)
_cell_angle_beta                 92.846(6)
_cell_angle_gamma                100.063(6)
_cell_volume                     2407.37
_exptl_crystal_colour            brown
_exptl_crystal_description       needle
_cell_formula_units_Z            1
loop_
_atom_site_label
_atom_site_type_symbol
_atom_site_fract_x
_atom_site_fract_y
_atom_site_fract_z
Ni1 Ni 0.06712(15) 0.37284(10) 0.31925(7)
Fe1 Fe -0.03280(17) 0.28118(11) 0.54384(8)
N1 N -0.0431(9) 0.3325(6) 0.4002(4)
N2 N 0.1272(10) 0.5221(7) 0.3791(4)
N3 N -0.3575(11) 0.1627(7) 0.5169(5)
N4 N 0.1972(9) 0.4191(7) 0.2392(4)
H1 H 0.2085 0.4904 0.2483
N5 N -0.0193(9) 0.2186(6) 0.2587(4)
H2 H -0.0491 0.1788 0.2900
N6 N 0.2656(9) 0.3309(6) 0.3465(4)
N7 N -0.1180(9) 0.4019(6) 0.2670(4)
N8 N -0.0101(10) 0.2408(6) 0.6318(4)
N9 N 0.0475(9) 0.1607(7) 0.5011(4)
N10 N 0.1734(9) 0.3589(6) 0.5630(4)
N11 N 0.1144(10) 0.2046(7) 0.6494(4)
N12 N 0.1719(9) 0.1389(6) 0.5320(4)
N13 N 0.2826(10) 0.3151(7) 0.5901(4)
B1 B 0.2365(15) 0.2046(9) 0.6017(6)
H3 H 0.3226 0.1793 0.6200
C1 C -0.0467(11) 0.3163(8) 0.4549(6)
C2 C 0.1003(11) 0.5974(9) 0.4113(5)
C3 C -0.2343(13) 0.2087(8) 0.5259(6)
C4 C 0.0934(12) 0.2842(8) 0.1372(5)
C5 C 0.1237(12) 0.3851(8) 0.1705(5)
C6 C 0.0729(11) 0.4590(8) 0.1405(5)
H4 H 0.0967 0.5292 0.1635
C7 C -0.0090(12) 0.4327(9) 0.0796(6)
H5 H -0.0410 0.4848 0.0607
C8 C -0.0480(12) 0.3293(9) 0.0438(5)
C9 C 0.0038(11) 0.2516(8) 0.0724(5)
C10 C -0.0415(12) 0.1473(8) 0.0387(5)
H6 H -0.0061 0.0951 0.0564
C11 C -0.1365(13) 0.1216(9) -0.0193(6)
H7 H -0.1701 0.0510 -0.0400
C12 C -0.1848(13) 0.1948(9) -0.0487(6)
H8 H -0.2452 0.1742 -0.0907
C13 C -0.1464(13) 0.2980(9) -0.0179(6)
H9 H -0.1845 0.3477 -0.0371
C14 C 0.1517(11) 0.2037(8) 0.1679(5)
C15 C 0.0955(12) 0.1714(8) 0.2232(5)
C16 C 0.1496(13) 0.0947(8) 0.2504(6)
H10 H 0.1058 0.0730 0.2880
C17 C 0.2622(13) 0.0517(8) 0.2240(5)
H11 H 0.2969 0.0004 0.2429
C18 C 0.3279(12) 0.0841(8) 0.1676(6)
C19 C 0.2694(12) 0.1590(8) 0.1378(5)
C20 C 0.3376(12) 0.1868(8) 0.0798(5)
H12 H 0.3030 0.2367 0.0595
C21 C 0.4514(13) 0.1430(9) 0.0531(6)
H13 H 0.4914 0.1611 0.0137
C22 C 0.5091(13) 0.0723(9) 0.0830(6)
H14 H 0.5899 0.0444 0.0645
C23 C 0.4521(12) 0.0427(9) 0.1380(6)
H15 H 0.4932 -0.0055 0.1577
C24 C 0.3498(11) 0.3994(9) 0.2477(5)
H16 H 0.4202 0.4659 0.2577
H17 H 0.3730 0.3584 0.2043
C25 C 0.3728(12) 0.3427(8) 0.3045(5)
C26 C 0.5086(13) 0.3108(8) 0.3147(6)
H18 H 0.5825 0.3192 0.2839
C27 C 0.5335(12) 0.2672(9) 0.3694(6)
H19 H 0.6250 0.2464 0.3773
C28 C 0.4232(12) 0.2544(8) 0.4127(6)
H20 H 0.4370 0.2243 0.4507
C29 C 0.2897(12) 0.2870(8) 0.3991(6)
H21 H 0.2132 0.2775 0.4285
C30 C -0.1567(11) 0.2178(8) 0.2161(5)
H22 H -0.2420 0.1775 0.2328
H23 H -0.1481 0.1832 0.1685
C31 C -0.1861(11) 0.3242(8) 0.2171(5)
C32 C -0.2865(12) 0.3406(9) 0.1671(5)
H24 H -0.3303 0.2859 0.1302
C33 C -0.3206(12) 0.4378(9) 0.1723(6)
H25 H -0.3883 0.4501 0.1391
C34 C -0.2553(11) 0.5162(9) 0.2261(5)
H26 H -0.2804 0.5824 0.2316
C35 C -0.1523(12) 0.4966(8) 0.2719(5)
H27 H -0.1041 0.5512 0.3080
C36 C -0.1026(13) 0.2320(9) 0.6827(6)
H28 H -0.1963 0.2522 0.6846
C37 C -0.0372(14) 0.1885(8) 0.7316(6)
H29 H -0.0774 0.1723 0.7715
C38 C 0.0985(14) 0.1747(9) 0.7089(6)
H30 H 0.1701 0.1480 0.7319
C39 C 0.0127(12) 0.0920(8) 0.4402(6)
H31 H -0.0688 0.0886 0.4084
C40 C 0.1182(13) 0.0266(8) 0.4320(6)
H32 H 0.1233 -0.0276 0.3942
C41 C 0.2118(12) 0.0592(8) 0.4912(6)
H33 H 0.2935 0.0290 0.5014
C42 C 0.2451(12) 0.4490(8) 0.5516(5)
H34 H 0.1984 0.4962 0.5334
C43 C 0.3953(12) 0.4637(9) 0.5700(5)
H35 H 0.4693 0.5204 0.5665
C44 C 0.4146(13) 0.3790(9) 0.5946(6)
H36 H 0.5063 0.3671 0.6119
Ni1A Ni -0.06712(15) 0.62716(10) 0.68075(7)
Fe1A Fe 0.03280(17) 0.71882(11) 0.45616(8)
N1A N 0.0431(9) 0.6675(6) 0.5998(4)
N2A N -0.1272(10) 0.4779(7) 0.6209(4)
N3A N 0.3575(11) 0.8373(7) 0.4831(5)
N4A N -0.1972(9) 0.5809(7) 0.7608(4)
H1A H -0.2085 0.5096 0.7517
N5A N 0.0193(9) 0.7814(6) 0.7413(4)
H2A H 0.0491 0.8212 0.7100
N6A N -0.2656(9) 0.6691(6) 0.6535(4)
N7A N 0.1180(9) 0.5981(6) 0.7330(4)
N8A N 0.0101(10) 0.7592(6) 0.3682(4)
N9A N -0.0475(9) 0.8393(7) 0.4989(4)
N10A N -0.1734(9) 0.6411(6) 0.4370(4)
N11A N -0.1144(10) 0.7954(7) 0.3506(4)
N12A N -0.1719(9) 0.8611(6) 0.4680(4)
N13A N -0.2826(10) 0.6849(7) 0.4099(4)
B1A B -0.2365(15) 0.7954(9) 0.3983(6)
H3A H -0.3226 0.8207 0.3800
C1A C 0.0467(11) 0.6837(8) 0.5451(6)
C2A C -0.1003(11) 0.4026(9) 0.5887(5)
C3A C 0.2343(13) 0.7913(8) 0.4741(6)
C4A C -0.0934(12) 0.7158(8) 0.8628(5)
C5A C -0.1237(12) 0.6149(8) 0.8295(5)
C6A C -0.0729(11) 0.5410(8) 0.8595(5)
H4A H -0.0967 0.4708 0.8365
C7A C 0.0090(12) 0.5673(9) 0.9204(6)
H5A H 0.0410 0.5152 0.9393
C8A C 0.0480(12) 0.6707(9) 0.9562(5)
C9A C -0.0038(11) 0.7484(8) 0.9276(5)
C10A C 0.0415(12) 0.8527(8) 0.9613(5)
H6A H 0.0061 0.9049 0.9436
C11A C 0.1365(13) 0.8784(9) 1.0193(6)
H7A H 0.1701 0.9490 1.0400
C12A C 0.1848(13) 0.8052(9) 1.0487(6)
H8A H 0.2452 0.8258 1.0907
C13A C 0.1464(13) 0.7020(9) 1.0179(6)
H9A H 0.1845 0.6523 1.0371
C14A C -0.1517(11) 0.7963(8) 0.8321(5)
C15A C -0.0955(12) 0.8286(8) 0.7768(5)
C16A C -0.1496(13) 0.9053(8) 0.7496(6)
H10A H -0.1058 0.9270 0.7120
C17A C -0.2622(13) 0.9483(8) 0.7760(5)
H11A H -0.2969 0.9996 0.7571
C18A C -0.3279(12) 0.9159(8) 0.8324(6)
C19A C -0.2694(12) 0.8410(8) 0.8622(5)
C20A C -0.3376(12) 0.8132(8) 0.9202(5)
H12A H -0.3030 0.7633 0.9405
C21A C -0.4514(13) 0.8570(9) 0.9469(6)
H13A H -0.4914 0.8389 0.9863
C22A C -0.5091(13) 0.9277(9) 0.9170(6)
H14A H -0.5899 0.9556 0.9355
C23A C -0.4521(12) 0.9573(9) 0.8620(6)
H15A H -0.4932 1.0055 0.8423
C24A C -0.3498(11) 0.6006(9) 0.7523(5)
H16A H -0.4202 0.5341 0.7423
H17A H -0.3730 0.6416 0.7957
C25A C -0.3728(12) 0.6573(8) 0.6955(5)
C26A C -0.5086(13) 0.6892(8) 0.6853(6)
H18A H -0.5825 0.6808 0.7161
C27A C -0.5335(12) 0.7328(9) 0.6306(6)
H19A H -0.6250 0.7536 0.6227
C28A C -0.4232(12) 0.7456(8) 0.5873(6)
H20A H -0.4370 0.7757 0.5493
C29A C -0.2897(12) 0.7130(8) 0.6009(6)
H21A H -0.2132 0.7225 0.5715
C30A C 0.1567(11) 0.7822(8) 0.7839(5)
H22A H 0.2420 0.8225 0.7672
H23A H 0.1481 0.8168 0.8315
C31A C 0.1861(11) 0.6758(8) 0.7829(5)
C32A C 0.2865(12) 0.6594(9) 0.8329(5)
H24A H 0.3303 0.7141 0.8698
C33A C 0.3206(12) 0.5622(9) 0.8277(6)
H25A H 0.3883 0.5499 0.8609
C34A C 0.2553(11) 0.4838(9) 0.7739(5)
H26A H 0.2804 0.4176 0.7684
C35A C 0.1523(12) 0.5034(8) 0.7281(5)
H27A H 0.1041 0.4488 0.6920
C36A C 0.1026(13) 0.7680(9) 0.3173(6)
H28A H 0.1963 0.7478 0.3154
C37A C 0.0372(14) 0.8115(8) 0.2684(6)
H29A H 0.0774 0.8277 0.2285
C38A C -0.0985(14) 0.8253(9) 0.2911(6)
H30A H -0.1701 0.8520 0.2681
C39A C -0.0127(12) 0.9080(8) 0.5598(6)
H31A H 0.0688 0.9114 0.5916
C40A C -0.1182(13) 0.9734(8) 0.5680(6)
H32A H -0.1233 1.0276 0.6058
C41A C -0.2118(12) 0.9408(8) 0.5088(6)
H33A H -0.2935 0.9710 0.4986
C42A C -0.2451(12) 0.5510(8) 0.4484(5)
H34A H -0.1984 0.5038 0.4666
C43A C -0.3953(12) 0.5363(9) 0.4300(5)
H35A H -0.4693 0.4796 0.4335
C44A C -0.4146(13) 0.6210(9) 0.4054(6)
H36A H -0.5063 0.6329 0.3881
P1 P 0.4262(5) 0.7063(3) 0.1992(2)
F1 F 0.2545(9) 0.6894(7) 0.1731(5)
F2 F 0.3873(7) 0.6587(6) 0.2628(3)
F3 F 0.4689(11) 0.7476(9) 0.1330(6)
F4 F 0.4333(12) 0.5904(7) 0.1604(5)
F5 F 0.4190(11) 0.8215(7) 0.2359(6)
F6 F 0.5985(10) 0.7242(8) 0.2273(6)
C45 C 0.4893(15) -0.0120(11) 0.3689(7)
H37 H 0.4154 0.0300 0.3622
H38 H 0.5108 -0.0071 0.4178
H39 H 0.4506 -0.0838 0.3463
C46 C 0.6283(16) 0.0262(10) 0.3390(6)
N14 N 0.7328(10) 0.0532(8) 0.3134(6)
C47 C 0.8037(19) 0.7662(14) 0.0980(8)
H40 H 0.8544 0.7427 0.1248
H41 H 0.8415 0.7529 0.0528
H42 H 0.7006 0.7304 0.0947
C48 C 0.820(2) 0.8771(17) 0.1224(9)
N15 N 0.8229(18) 0.9631(14) 0.1411(9)
O1 O 0.3315(13) 0.454(2) -0.0036(12)
loop_
_geom_bond_atom_site_label_1
_geom_bond_atom_site_label_2
_geom_bond_site_symmetry_1
_geom_bond_site_symmetry_2
Ni1 N1 1_555 1_555
Fe1 N8 1_555 1_555
P1 F1 1_555 1_555
F2 P1 1_555 1_555
F3 P1 1_555 1_555
F4 P1 1_555 1_555
F5 P1 1_555 1_555
F6 P1 1_555 1_555
N1 C1 1_555 1_555
N2 Ni1 1_555 1_555
N3 C3 1_555 1_555
N4 Ni1 1_555 1_555
H1 N4 1_555 1_555
N5 Ni1 1_555 1_555
H2 N5 1_555 1_555
N6 Ni1 1_555 1_555
N7 Ni1 1_555 1_555
N8 N11 1_555 1_555
N9 Fe1 1_555 1_555
N10 Fe1 1_555 1_555
N11 B1 1_555 1_555
N12 N9 1_555 1_555
N13 N10 1_555 1_555
B1 N12 1_555 1_555
H3 B1 1_555 1_555
C1 Fe1 1_555 1_555
C2 N2 1_555 1_555
C3 Fe1 1_555 1_555
C4 C5 1_555 1_555
C5 N4 1_555 1_555
C6 C5 1_555 1_555
H4 C6 1_555 1_555
C7 C6 1_555 1_555
H5 C7 1_555 1_555
C8 C7 1_555 1_555
C9 C4 1_555 1_555
C10 C9 1_555 1_555
H6 C10 1_555 1_555
C11 C10 1_555 1_555
H7 C11 1_555 1_555
C12 C11 1_555 1_555
H8 C12 1_555 1_555
C13 C8 1_555 1_555
H9 C13 1_555 1_555
C14 C4 1_555 1_555
C15 N5 1_555 1_555
C16 C15 1_555 1_555
H10 C16 1_555 1_555
C17 C16 1_555 1_555
H11 C17 1_555 1_555
C18 C17 1_555 1_555
C19 C14 1_555 1_555
C20 C19 1_555 1_555
H12 C20 1_555 1_555
C21 C20 1_555 1_555
H13 C21 1_555 1_555
C22 C21 1_555 1_555
H14 C22 1_555 1_555
C23 C18 1_555 1_555
H15 C23 1_555 1_555
C24 N4 1_555 1_555
H16 C24 1_555 1_555
H17 C24 1_555 1_555
C25 N6 1_555 1_555
C26 C25 1_555 1_555
H18 C26 1_555 1_555
C27 C26 1_555 1_555
H19 C27 1_555 1_555
C28 C27 1_555 1_555
H20 C28 1_555 1_555
C29 N6 1_555 1_555
H21 C29 1_555 1_555
C30 N5 1_555 1_555
H22 C30 1_555 1_555
H23 C30 1_555 1_555
C31 N7 1_555 1_555
C32 C31 1_555 1_555
H24 C32 1_555 1_555
C33 C32 1_555 1_555
H25 C33 1_555 1_555
C34 C33 1_555 1_555
H26 C34 1_555 1_555
C35 N7 1_555 1_555
H27 C35 1_555 1_555
C36 N8 1_555 1_555
H28 C36 1_555 1_555
C37 C36 1_555 1_555
H29 C37 1_555 1_555
C38 N11 1_555 1_555
H30 C38 1_555 1_555
C39 N9 1_555 1_555
H31 C39 1_555 1_555
C40 C39 1_555 1_555
H32 C40 1_555 1_555
C41 N12 1_555 1_555
H33 C41 1_555 1_555
C42 N10 1_555 1_555
H34 C42 1_555 1_555
C43 C42 1_555 1_555
H35 C43 1_555 1_555
C44 N13 1_555 1_555
H36 C44 1_555 1_555
C45 H37 1_555 1_555
H38 C45 1_555 1_555
H39 C45 1_555 1_555
C46 C45 1_555 1_555
N14 C46 1_555 1_555
C47 H40 1_555 1_555
H41 C47 1_555 1_555
H42 C47 1_555 1_555
C48 C47 1_555 1_555
N15 C48 1_555 1_555
Ni1A N1A 1_555 1_555
Fe1A C2 1_555 1_555
N1A C1A 1_555 1_555
N2A Ni1A 1_555 1_555
N3A C3A 1_555 1_555
N4A Ni1A 1_555 1_555
H1A N4A 1_555 1_555
N5A Ni1A 1_555 1_555
H2A N5A 1_555 1_555
N6A Ni1A 1_555 1_555
N7A Ni1A 1_555 1_555
N8A Fe1A 1_555 1_555
N9A Fe1A 1_555 1_555
N10A Fe1A 1_555 1_555
N11A N8A 1_555 1_555
N12A N9A 1_555 1_555
N13A N10A 1_555 1_555
B1A N11A 1_555 1_555
H3A B1A 1_555 1_555
C1A Fe1A 1_555 1_555
C2A Fe1 1_555 1_555
C3A Fe1A 1_555 1_555
C4A C5A 1_555 1_555
C5A N4A 1_555 1_555
C6A C5A 1_555 1_555
H4A C6A 1_555 1_555
C7A C6A 1_555 1_555
H5A C7A 1_555 1_555
C8A C7A 1_555 1_555
C9A C4A 1_555 1_555
C10A C9A 1_555 1_555
H6A C10A 1_555 1_555
C11A C10A 1_555 1_555
H7A C11A 1_555 1_555
C12A C11A 1_555 1_555
H8A C12A 1_555 1_555
C13A C8A 1_555 1_555
H9A C13A 1_555 1_555
C14A C4A 1_555 1_555
C15A N5A 1_555 1_555
C16A C15A 1_555 1_555
H10A C16A 1_555 1_555
C17A C16A 1_555 1_555
H11A C17A 1_555 1_555
C18A C17A 1_555 1_555
C19A C14A 1_555 1_555
C20A C19A 1_555 1_555
H12A C20A 1_555 1_555
C21A C20A 1_555 1_555
H13A C21A 1_555 1_555
C22A C21A 1_555 1_555
H14A C22A 1_555 1_555
C23A C18A 1_555 1_555
H15A C23A 1_555 1_555
C24A N4A 1_555 1_555
H16A C24A 1_555 1_555
H17A C24A 1_555 1_555
C25A N6A 1_555 1_555
C26A C25A 1_555 1_555
H18A C26A 1_555 1_555
C27A C26A 1_555 1_555
H19A C27A 1_555 1_555
C28A C27A 1_555 1_555
H20A C28A 1_555 1_555
C29A N6A 1_555 1_555
H21A C29A 1_555 1_555
C30A N5A 1_555 1_555
H22A C30A 1_555 1_555
H23A C30A 1_555 1_555
C31A N7A 1_555 1_555
C32A C31A 1_555 1_555
H24A C32A 1_555 1_555
C33A C32A 1_555 1_555
H25A C33A 1_555 1_555
C34A C33A 1_555 1_555
H26A C34A 1_555 1_555
C35A N7A 1_555 1_555
H27A C35A 1_555 1_555
C36A N8A 1_555 1_555
H28A C36A 1_555 1_555
C37A C36A 1_555 1_555
H29A C37A 1_555 1_555
C38A N11A 1_555 1_555
H30A C38A 1_555 1_555
C39A N9A 1_555 1_555
H31A C39A 1_555 1_555
C40A C39A 1_555 1_555
H32A C40A 1_555 1_555
C41A N12A 1_555 1_555
H33A C41A 1_555 1_555
C42A N10A 1_555 1_555
H34A C42A 1_555 1_555
C43A C42A 1_555 1_555
H35A C43A 1_555 1_555
C44A N13A 1_555 1_555
H36A C44A 1_555 1_555
N13 B1 1_555 1_555
C8 C9 1_555 1_555
C12 C13 1_555 1_555
C14 C15 1_555 1_555
C18 C19 1_555 1_555
C22 C23 1_555 1_555
C24 C25 1_555 1_555
C28 C29 1_555 1_555
C30 C31 1_555 1_555
C34 C35 1_555 1_555
C37 C38 1_555 1_555
C40 C41 1_555 1_555
C43 C44 1_555 1_555
N2A C2A 1_555 1_555
N12A B1A 1_555 1_555
N13A B1A 1_555 1_555
C8A C9A 1_555 1_555
C12A C13A 1_555 1_555
C14A C15A 1_555 1_555
C18A C19A 1_555 1_555
C22A C23A 1_555 1_555
C24A C25A 1_555 1_555
C28A C29A 1_555 1_555
C30A C31A 1_555 1_555
C34A C35A 1_555 1_555
C37A C38A 1_555 1_555
C40A C41A 1_555 1_555
C43A C44A 1_555 1_555

#END
