
#######################################################################
#
#                 Cambridge Crystallographic Data Centre
#                                CCDC 
#
#######################################################################
#
# If this CIF has been generated from an entry in the Cambridge 
# Structural Database, then it will include bibliographic, chemical, 
# crystal, experimental, refinement or atomic coordinate data resulting 
# from the CCDC's data processing and validation procedures.
#
#######################################################################

data_SUYLUT
_chemical_formula_moiety         'C80 H52 Cu2 N4 O8,2(C1 H1 Cl3),C4 H10 O1'
_chemical_name_systematic        
"bis(\m~2~-N,N'-bis(2-Hydroxy-1-naphthylmethylidene)-1,4-bis(4-aminophenoxy)benzene-N,N',O,O')-di-copper(ii) chloroform diethyl ether solvate"
_symmetry_cell_setting           monoclinic
_symmetry_space_group_name_H-M   'P 21/c'
_symmetry_Int_Tables_number      14
_space_group_name_Hall           '-P 2ybc'
loop_
_symmetry_equiv_pos_site_id
_symmetry_equiv_pos_as_xyz
1 x,y,z
2 x,1/2-y,1/2+z
3 -x,-y,-z
4 -x,1/2+y,1/2-z
_cell_length_a                   12.6528(10)
_cell_length_b                   20.1218(15)
_cell_length_c                   30.263(3)
_cell_angle_alpha                90
_cell_angle_beta                 100.8150(10)
_cell_angle_gamma                90
_cell_volume                     7568.02
_exptl_crystal_colour            'dark brown'
_cell_formula_units_Z            4
loop_
_atom_site_label
_atom_site_type_symbol
_atom_site_fract_x
_atom_site_fract_y
_atom_site_fract_z
Cu1 Cu 1.37675(3) 0.329122(19) 0.817065(11)
Cu2 Cu 0.44526(3) 0.362469(18) 0.363590(11)
O1 O 1.52496(16) 0.33263(11) 0.84404(7)
O2 O 1.0890(2) 0.13682(12) 0.64932(9)
O3 O 0.70933(18) 0.21938(15) 0.54316(8)
O4 O 0.44431(16) 0.38334(12) 0.30249(7)
O5 O 0.29370(16) 0.34828(12) 0.34968(7)
O6 O 1.34822(16) 0.33418(11) 0.87654(7)
O7 O 1.16950(17) 0.42655(12) 0.60706(7)
O8 O 0.78610(16) 0.53333(10) 0.51706(7)
N1 N 1.40595(18) 0.27981(12) 0.76475(8)
N2 N 0.59616(19) 0.33449(12) 0.37368(8)
N3 N 1.24500(19) 0.37763(12) 0.79202(8)
N4 N 0.43772(18) 0.38631(11) 0.42570(7)
C1 C 1.6083(2) 0.31987(14) 0.82626(11)
C2 C 1.7124(2) 0.33097(15) 0.85358(11)
H1 H 1.7173 0.3458 0.8830
C3 C 1.8035(2) 0.32028(15) 0.83730(13)
H2 H 1.8696 0.3285 0.8559
C4 C 1.8020(3) 0.29703(15) 0.79302(12)
C5 C 1.8983(3) 0.28774(17) 0.77630(15)
H3 H 1.9641 0.2974 0.7946
C6 C 1.8953(3) 0.2647(2) 0.73348(16)
H4 H 1.9590 0.2582 0.7229
C7 C 1.7967(3) 0.2508(2) 0.70575(14)
H5 H 1.7951 0.2349 0.6768
C8 C 1.7023(3) 0.26042(18) 0.72071(13)
H6 H 1.6374 0.2518 0.7014
C9 C 1.7010(2) 0.28314(15) 0.76491(11)
C10 C 1.6027(2) 0.29358(14) 0.78255(10)
C11 C 1.5031(2) 0.27104(14) 0.75676(10)
H7 H 1.5078 0.2470 0.7309
C12 C 1.3203(2) 0.24811(15) 0.73391(10)
C13 C 1.3163(3) 0.24926(19) 0.68754(11)
H8 H 1.3665 0.2738 0.6756
C14 C 1.2370(3) 0.2135(2) 0.65924(11)
H9 H 1.2351 0.2133 0.6284
C15 C 1.1608(3) 0.17830(17) 0.67696(12)
C16 C 1.1627(3) 0.17863(18) 0.72224(12)
H10 H 1.1107 0.1553 0.7339
C17 C 1.2421(2) 0.21367(17) 0.75101(10)
H11 H 1.2426 0.2140 0.7818
C18 C 1.0001(3) 0.16353(17) 0.62138(11)
C19 C 0.9366(3) 0.1180(2) 0.59428(14)
H12 H 0.9573 0.0737 0.5946
C20 C 0.8427(3) 0.1382(2) 0.56670(13)
H13 H 0.8003 0.1076 0.5483
C21 C 0.8122(3) 0.20359(19) 0.56660(10)
C22 C 0.8759(3) 0.24909(17) 0.59289(11)
H14 H 0.8554 0.2935 0.5923
C23 C 0.9708(3) 0.22902(16) 0.62036(10)
H15 H 1.0144 0.2599 0.6380
C24 C 0.6938(2) 0.24409(17) 0.50005(10)
C25 C 0.5952(2) 0.22907(15) 0.47331(10)
H16 H 0.5485 0.1999 0.4838
C26 C 0.5658(2) 0.25711(14) 0.43121(10)
H17 H 0.4996 0.2469 0.4135
C27 C 0.6357(2) 0.30090(14) 0.41528(9)
C28 C 0.7360(2) 0.31427(15) 0.44165(10)
H18 H 0.7834 0.3425 0.4308
C29 C 0.7658(2) 0.28584(16) 0.48388(10)
H19 H 0.8331 0.2946 0.5013
C30 C 0.6609(2) 0.34625(14) 0.34584(9)
H20 H 0.7314 0.3315 0.3546
C31 C 0.6356(2) 0.37925(14) 0.30344(9)
C32 C 0.7216(2) 0.39408(14) 0.27894(10)
C33 C 0.8317(3) 0.38722(16) 0.29722(11)
H21 H 0.8520 0.3718 0.3266
C34 C 0.9103(3) 0.40256(19) 0.27316(13)
H22 H 0.9823 0.3975 0.2865
C35 C 0.8834(3) 0.42565(19) 0.22900(13)
H23 H 0.9368 0.4356 0.2127
C36 C 0.7767(3) 0.43341(17) 0.20997(12)
H24 H 0.7581 0.4486 0.1805
C37 C 0.6946(3) 0.41865(15) 0.23437(10)
C38 C 0.5849(3) 0.42797(18) 0.21464(11)
H25 H 0.5673 0.4425 0.1850
C39 C 0.5051(3) 0.41630(19) 0.23777(11)
H26 H 0.4342 0.4239 0.2239
C40 C 0.5275(2) 0.39251(15) 0.28319(9)
C41 C 1.2664(2) 0.35958(15) 0.89065(10)
C42 C 1.2691(3) 0.35830(17) 0.93819(11)
H27 H 1.3279 0.3392 0.9569
C43 C 1.1894(3) 0.38377(17) 0.95651(11)
H28 H 1.1951 0.3827 0.9876
C44 C 1.0955(3) 0.41264(16) 0.92930(12)
C45 C 1.0095(3) 0.43597(18) 0.94910(13)
H29 H 1.0148 0.4330 0.9801
C46 C 0.9189(3) 0.46276(18) 0.92351(15)
H30 H 0.8625 0.4772 0.9368
C47 C 0.9124(3) 0.46801(17) 0.87738(14)
H31 H 0.8517 0.4870 0.8599
C48 C 0.9946(2) 0.44552(16) 0.85691(12)
H32 H 0.9878 0.4494 0.8259
C49 C 1.0891(2) 0.41657(14) 0.88236(10)
C50 C 1.1770(2) 0.39042(15) 0.86234(10)
C51 C 1.1746(2) 0.39832(14) 0.81554(10)
H33 H 1.1155 0.4210 0.7996
C52 C 1.2226(2) 0.39240(14) 0.74484(10)
C53 C 1.1210(2) 0.38133(15) 0.71890(10)
H34 H 1.0661 0.3654 0.7326
C54 C 1.1006(2) 0.39360(16) 0.67347(10)
H35 H 1.0325 0.3862 0.6564
C55 C 1.1832(2) 0.41728(15) 0.65330(10)
C56 C 1.2847(2) 0.42974(15) 0.67843(10)
H36 H 1.3391 0.4466 0.6648
C57 C 1.3038(2) 0.41670(15) 0.72419(10)
H37 H 1.3718 0.4243 0.7413
C58 C 1.0698(2) 0.45213(15) 0.58531(10)
C59 C 1.0173(3) 0.42053(16) 0.54751(10)
H38 H 1.0459 0.3821 0.5374
C60 C 0.9209(3) 0.44636(15) 0.52423(11)
H39 H 0.8852 0.4257 0.4982
C61 C 0.8785(2) 0.50280(14) 0.54002(10)
C62 C 0.9317(3) 0.53437(16) 0.57811(11)
H40 H 0.9029 0.5726 0.5885
C63 C 1.0282(3) 0.50891(16) 0.60090(11)
H41 H 1.0648 0.5300 0.6266
C64 C 0.7016(2) 0.49371(14) 0.49557(10)
C65 C 0.6566(2) 0.44552(15) 0.51819(9)
H42 H 0.6847 0.4370 0.5483
C66 C 0.5689(2) 0.40947(15) 0.49594(9)
H43 H 0.5391 0.3761 0.5110
C67 C 0.5252(2) 0.42329(14) 0.45095(9)
C68 C 0.5723(2) 0.47257(15) 0.42899(10)
H44 H 0.5440 0.4821 0.3990
C69 C 0.6608(2) 0.50783(15) 0.45095(10)
H45 H 0.6922 0.5405 0.4359
C70 C 0.3605(2) 0.36632(13) 0.44576(9)
H46 H 0.3678 0.3762 0.4762
C71 C 0.2661(2) 0.33088(14) 0.42554(10)
C72 C 0.1967(2) 0.30359(14) 0.45380(10)
C73 C 0.2269(3) 0.29766(16) 0.50090(11)
H47 H 0.2941 0.3131 0.5151
C74 C 0.1595(3) 0.26960(17) 0.52638(12)
H48 H 0.1811 0.2669 0.5574
C75 C 0.0582(3) 0.24495(17) 0.50598(13)
H49 H 0.0136 0.2254 0.5234
C76 C 0.0259(3) 0.24971(17) 0.46101(13)
H50 H -0.0415 0.2337 0.4478
C77 C 0.0932(2) 0.27882(15) 0.43338(11)
C78 C 0.0616(3) 0.28239(17) 0.38591(12)
H51 H -0.0071 0.2685 0.3726
C79 C 0.1281(2) 0.30515(16) 0.35983(11)
H52 H 0.1045 0.3059 0.3288
C80 C 0.2346(2) 0.32846(15) 0.37806(10)
Cl1 Cl 0.58382(9) 0.49980(5) 0.09171(4)
Cl2 Cl 0.38369(9) 0.50473(7) 0.12392(4)
Cl3 Cl 0.39035(14) 0.54777(7) 0.03388(4)
C81 C 0.4624(3) 0.5448(2) 0.08925(13)
Cl7 Cl 0.3834(6) 0.5477(4) 0.3049(5)
Cl8 Cl 0.1817(8) 0.5093(4) 0.3282(5)
Cl9 Cl 0.2096(10) 0.5138(8) 0.2405(3)
C82 C 0.2688(4) 0.4974(2) 0.29386(17)
O9 O 0.4772(4) 0.23811(18) 0.61845(13)
C83 C 0.5089(9) 0.1736(3) 0.6105(5)
C84 C 0.4056(3) 0.1643(3) 0.55838(14)
C85 C 0.5109(5) 0.2930(2) 0.59665(14)
C86 C 0.4865(7) 0.3522(3) 0.6123(2)
loop_
_geom_bond_atom_site_label_1
_geom_bond_atom_site_label_2
_geom_bond_site_symmetry_1
_geom_bond_site_symmetry_2
Cu1 O1 1_555 1_555
Cu2 O4 1_555 1_555
O1 C1 1_555 1_555
O2 C15 1_555 1_555
O3 C21 1_555 1_555
O4 C40 1_555 1_555
O5 Cu2 1_555 1_555
O6 Cu1 1_555 1_555
O7 C55 1_555 1_555
O8 C61 1_555 1_555
N1 Cu1 1_555 1_555
N2 Cu2 1_555 1_555
N3 Cu1 1_555 1_555
N4 Cu2 1_555 1_555
C1 C2 1_555 1_555
C2 H1 1_555 1_555
C3 C2 1_555 1_555
H2 C3 1_555 1_555
C4 C3 1_555 1_555
C5 C4 1_555 1_555
H3 C5 1_555 1_555
C6 C5 1_555 1_555
H4 C6 1_555 1_555
C7 C6 1_555 1_555
H5 C7 1_555 1_555
C8 C7 1_555 1_555
H6 C8 1_555 1_555
C9 C4 1_555 1_555
C10 C1 1_555 1_555
C11 N1 1_555 1_555
H7 C11 1_555 1_555
C12 N1 1_555 1_555
C13 C12 1_555 1_555
H8 C13 1_555 1_555
C14 C13 1_555 1_555
H9 C14 1_555 1_555
C15 C14 1_555 1_555
C16 C15 1_555 1_555
H10 C16 1_555 1_555
C17 C12 1_555 1_555
H11 C17 1_555 1_555
C18 O2 1_555 1_555
C19 C18 1_555 1_555
H12 C19 1_555 1_555
C20 C19 1_555 1_555
H13 C20 1_555 1_555
C21 C20 1_555 1_555
C22 C21 1_555 1_555
H14 C22 1_555 1_555
C23 C18 1_555 1_555
H15 C23 1_555 1_555
C24 O3 1_555 1_555
C25 C24 1_555 1_555
H16 C25 1_555 1_555
C26 C25 1_555 1_555
H17 C26 1_555 1_555
C27 N2 1_555 1_555
C28 C27 1_555 1_555
H18 C28 1_555 1_555
C29 C24 1_555 1_555
H19 C29 1_555 1_555
C30 N2 1_555 1_555
H20 C30 1_555 1_555
C31 C30 1_555 1_555
C32 C31 1_555 1_555
C33 C32 1_555 1_555
H21 C33 1_555 1_555
C34 C33 1_555 1_555
H22 C34 1_555 1_555
C35 C34 1_555 1_555
H23 C35 1_555 1_555
C36 C35 1_555 1_555
H24 C36 1_555 1_555
C37 C32 1_555 1_555
C38 C37 1_555 1_555
H25 C38 1_555 1_555
C39 C38 1_555 1_555
H26 C39 1_555 1_555
C40 C31 1_555 1_555
C41 O6 1_555 1_555
C42 C41 1_555 1_555
H27 C42 1_555 1_555
C43 C42 1_555 1_555
H28 C43 1_555 1_555
C44 C43 1_555 1_555
C45 C44 1_555 1_555
H29 C45 1_555 1_555
C46 C45 1_555 1_555
H30 C46 1_555 1_555
C47 C46 1_555 1_555
H31 C47 1_555 1_555
C48 C47 1_555 1_555
H32 C48 1_555 1_555
C49 C44 1_555 1_555
C50 C41 1_555 1_555
C51 N3 1_555 1_555
H33 C51 1_555 1_555
C52 N3 1_555 1_555
C53 C52 1_555 1_555
H34 C53 1_555 1_555
C54 C53 1_555 1_555
H35 C54 1_555 1_555
C55 C54 1_555 1_555
C56 C55 1_555 1_555
H36 C56 1_555 1_555
C57 C52 1_555 1_555
H37 C57 1_555 1_555
C58 O7 1_555 1_555
C59 C58 1_555 1_555
H38 C59 1_555 1_555
C60 C59 1_555 1_555
H39 C60 1_555 1_555
C61 C60 1_555 1_555
C62 C61 1_555 1_555
H40 C62 1_555 1_555
C63 C58 1_555 1_555
H41 C63 1_555 1_555
C64 O8 1_555 1_555
C65 C64 1_555 1_555
H42 C65 1_555 1_555
C66 C65 1_555 1_555
H43 C66 1_555 1_555
C67 N4 1_555 1_555
C68 C67 1_555 1_555
H44 C68 1_555 1_555
C69 C64 1_555 1_555
H45 C69 1_555 1_555
C70 N4 1_555 1_555
H46 C70 1_555 1_555
C71 C70 1_555 1_555
C72 C71 1_555 1_555
C73 C72 1_555 1_555
H47 C73 1_555 1_555
C74 C73 1_555 1_555
H48 C74 1_555 1_555
C75 C74 1_555 1_555
H49 C75 1_555 1_555
C76 C75 1_555 1_555
H50 C76 1_555 1_555
C77 C72 1_555 1_555
C78 C77 1_555 1_555
H51 C78 1_555 1_555
C79 C78 1_555 1_555
H52 C79 1_555 1_555
C80 O5 1_555 1_555
Cl1 C81 1_555 1_555
Cl2 C81 1_555 1_555
Cl3 C81 1_555 1_555
Cl7 C82 1_555 1_555
Cl8 C82 1_555 1_555
Cl9 C82 1_555 1_555
O9 C83 1_555 1_555
C83 C84 1_555 1_555
C85 O9 1_555 1_555
C86 C85 1_555 1_555
C8 C9 1_555 1_555
C9 C10 1_555 1_555
C10 C11 1_555 1_555
C16 C17 1_555 1_555
C22 C23 1_555 1_555
C26 C27 1_555 1_555
C28 C29 1_555 1_555
C36 C37 1_555 1_555
C39 C40 1_555 1_555
C48 C49 1_555 1_555
C49 C50 1_555 1_555
C50 C51 1_555 1_555
C56 C57 1_555 1_555
C62 C63 1_555 1_555
C66 C67 1_555 1_555
C68 C69 1_555 1_555
C71 C80 1_555 1_555
C76 C77 1_555 1_555
C79 C80 1_555 1_555

#END
