
#######################################################################
#
#                 Cambridge Crystallographic Data Centre
#                                CCDC 
#
#######################################################################
#
# If this CIF has been generated from an entry in the Cambridge 
# Structural Database, then it will include bibliographic, chemical, 
# crystal, experimental, refinement or atomic coordinate data resulting 
# from the CCDC's data processing and validation procedures.
#
#######################################################################

data_TAXFEE02
_chemical_formula_moiety         'C80 H68 Fe4 N20 4+,4(F6 P1 1-)'
_chemical_name_systematic        
"tetrakis(\m~2~-Cyano-C,N)-tetrakis(2,2'-bipyridine-N,N')-bis(tris(2-pyridylmethyl)amine-N,N',N'',N''')-tetra-iron(ii) tetrakis(hexafluorophosphate)"
_symmetry_cell_setting           triclinic
_symmetry_space_group_name_H-M   'P -1'
_symmetry_Int_Tables_number      2
_space_group_name_Hall           '-P 1'
loop_
_symmetry_equiv_pos_site_id
_symmetry_equiv_pos_as_xyz
1 x,y,z
2 -x,-y,-z
_cell_length_a                   14.426(2)
_cell_length_b                   15.042(2)
_cell_length_c                   22.272(3)
_cell_angle_alpha                77.270(3)
_cell_angle_beta                 83.486(3)
_cell_angle_gamma                64.112(3)
_cell_volume                     4240.25
_exptl_crystal_colour            'dark red'
_exptl_crystal_description       block
_cell_formula_units_Z            2
_exptl_crystal_preparation       'low spin state'
loop_
_atom_site_label
_atom_site_type_symbol
_atom_site_fract_x
_atom_site_fract_y
_atom_site_fract_z
Fe1 Fe 0.03516(6) 0.43008(6) 0.32090(3)
Fe2 Fe -0.09012(6) 0.32978(6) 0.15777(4)
Fe3 Fe 0.25207(6) 0.04024(6) 0.16506(4)
Fe4 Fe 0.39720(6) 0.18004(6) 0.29415(4)
N1 N -0.0369(4) 0.3754(3) 0.2154(2)
N2 N 0.0535(4) 0.2381(3) 0.1389(2)
N3 N 0.3442(3) 0.1174(3) 0.2480(2)
N4 N 0.2567(4) 0.2695(3) 0.3116(2)
N5 N 0.0885(3) 0.4613(3) 0.3884(2)
N6 N 0.0869(3) 0.5254(3) 0.2710(2)
N7 N -0.0233(3) 0.3451(4) 0.3758(2)
N8 N -0.1077(3) 0.5341(4) 0.3294(2)
N9 N -0.1509(4) 0.2888(4) 0.0975(2)
N10 N -0.0956(4) 0.2106(4) 0.2137(2)
N11 N -0.2340(4) 0.4003(3) 0.1856(2)
N12 N -0.1032(4) 0.4399(4) 0.0875(2)
N13 N 0.1884(3) -0.0144(3) 0.1181(2)
N14 N 0.1822(4) -0.0144(3) 0.2340(2)
N15 N 0.3392(4) 0.0741(3) 0.0979(2)
N16 N 0.3797(3) -0.0899(3) 0.1776(2)
N17 N 0.5427(3) 0.0912(3) 0.2745(2)
N18 N 0.4095(3) 0.2647(3) 0.2149(2)
N19 N 0.4577(3) 0.2395(3) 0.3395(2)
N20 N 0.4156(3) 0.0735(4) 0.3674(2)
C1 C -0.0070(4) 0.3979(4) 0.2534(3)
C2 C 0.1319(5) 0.1667(4) 0.1474(3)
C3 C 0.3069(4) 0.0900(4) 0.2169(3)
C4 C 0.1708(5) 0.3245(4) 0.3156(2)
C5 C 0.0893(4) 0.4225(4) 0.4485(3)
H1 H 0.0530 0.3836 0.4625
C6 C 0.1407(5) 0.4375(5) 0.4900(3)
H2 H 0.1402 0.4078 0.5313
C7 C 0.1937(5) 0.4964(5) 0.4711(3)
H3 H 0.2291 0.5072 0.4991
C8 C 0.1928(5) 0.5392(4) 0.4091(3)
H4 H 0.2269 0.5801 0.3948
C9 C 0.1410(4) 0.5203(4) 0.3691(2)
C10 C 0.1403(4) 0.5550(4) 0.3022(3)
C11 C 0.1918(5) 0.6134(4) 0.2719(3)
H5 H 0.2295 0.6315 0.2941
C12 C 0.1857(5) 0.6432(5) 0.2092(3)
H6 H 0.2205 0.6806 0.1881
C13 C 0.1274(4) 0.6170(4) 0.1777(3)
H7 H 0.1192 0.6397 0.1354
C14 C 0.0816(4) 0.5570(4) 0.2094(2)
H8 H 0.0453 0.5371 0.1873
C15 C 0.0264(5) 0.2454(5) 0.3983(3)
H9 H 0.0956 0.2120 0.3878
C16 C -0.0209(5) 0.1914(5) 0.4362(3)
H10 H 0.0163 0.1230 0.4512
C17 C -0.1219(6) 0.2382(5) 0.4516(3)
H11 H -0.1542 0.2023 0.4775
C18 C -0.1769(5) 0.3403(6) 0.4286(3)
H12 H -0.2466 0.3735 0.4379
C19 C -0.1243(5) 0.3915(5) 0.3909(3)
C20 C -0.1740(4) 0.4992(5) 0.3643(2)
C21 C -0.2770(4) 0.5620(5) 0.3710(3)
H13 H -0.3206 0.5373 0.3954
C22 C -0.3145(5) 0.6603(5) 0.3419(3)
H14 H -0.3837 0.7030 0.3464
C23 C -0.2495(5) 0.6961(5) 0.3057(3)
H15 H -0.2742 0.7624 0.2845
C24 C -0.1457(5) 0.6303(5) 0.3017(3)
H16 H -0.1010 0.6549 0.2787
C25 C -0.1188(5) 0.1787(5) 0.1176(3)
H17 H -0.1661 0.1596 0.1019
H18 H -0.0504 0.1424 0.1012
C26 C -0.1182(5) 0.1519(5) 0.1857(3)
C27 C -0.1334(5) 0.0686(5) 0.2195(4)
H19 H -0.1493 0.0287 0.1997
C28 C -0.1246(5) 0.0473(5) 0.2815(4)
H20 H -0.1349 -0.0074 0.3044
C29 C -0.1008(5) 0.1052(5) 0.3109(4)
H21 H -0.0935 0.0900 0.3534
C30 C -0.0880(5) 0.1870(5) 0.2755(3)
H22 H -0.0734 0.2277 0.2953
C31 C -0.2657(5) 0.3474(5) 0.0990(3)
H23 H -0.2978 0.3043 0.0950
H24 H -0.2859 0.4032 0.0642
C32 C -0.3043(5) 0.3876(5) 0.1573(3)
C33 C -0.4039(5) 0.4139(5) 0.1787(4)
H25 H -0.4507 0.4056 0.1576
C34 C -0.4343(5) 0.4530(6) 0.2324(4)
H26 H -0.5010 0.4696 0.2482
C35 C -0.3642(5) 0.4666(5) 0.2616(3)
H27 H -0.3828 0.4935 0.2972
C36 C -0.2654(5) 0.4399(4) 0.2372(3)
H28 H -0.2183 0.4495 0.2572
C37 C -0.1074(5) 0.3161(5) 0.0371(3)
H29 H -0.1460 0.3153 0.0045
H30 H -0.0362 0.2685 0.0334
C38 C -0.1142(5) 0.4203(5) 0.0323(3)
C39 C -0.1295(6) 0.4900(5) -0.0221(3)
H31 H -0.1371 0.4749 -0.0591
C40 C -0.1333(6) 0.5827(5) -0.0201(3)
H32 H -0.1409 0.6301 -0.0561
C41 C -0.1259(6) 0.6047(5) 0.0353(3)
H33 H -0.1302 0.6675 0.0373
C42 C -0.1116(5) 0.5315(5) 0.0886(3)
H34 H -0.1078 0.5470 0.1262
C43 C 0.1897(4) -0.0051(4) 0.0562(3)
H35 H 0.2264 0.0278 0.0318
C44 C 0.1373(5) -0.0433(4) 0.0280(3)
H36 H 0.1398 -0.0360 -0.0146
C45 C 0.0823(5) -0.0917(5) 0.0629(3)
H37 H 0.0473 -0.1177 0.0445
C46 C 0.0802(5) -0.1009(4) 0.1258(3)
H38 H 0.0431 -0.1332 0.1504
C47 C 0.1331(4) -0.0623(4) 0.1523(3)
C48 C 0.1357(4) -0.0682(4) 0.2189(3)
C49 C 0.1007(5) -0.1269(4) 0.2639(3)
H39 H 0.0693 -0.1634 0.2532
C50 C 0.1135(5) -0.1300(5) 0.3255(3)
H40 H 0.0927 -0.1708 0.3563
C51 C 0.1565(5) -0.0733(5) 0.3406(3)
H41 H 0.1641 -0.0738 0.3816
C52 C 0.1882(5) -0.0155(5) 0.2940(3)
H42 H 0.2153 0.0249 0.3044
C53 C 0.3133(5) 0.1623(5) 0.0577(3)
H43 H 0.2442 0.2078 0.0551
C54 C 0.3842(5) 0.1885(5) 0.0204(3)
H44 H 0.3634 0.2501 -0.0067
C55 C 0.4867(5) 0.1211(5) 0.0243(3)
H45 H 0.5361 0.1377 0.0004
C56 C 0.5159(5) 0.0290(5) 0.0636(3)
H46 H 0.5848 -0.0171 0.0664
C57 C 0.4402(4) 0.0066(4) 0.0989(3)
C58 C 0.4617(4) -0.0904(4) 0.1412(3)
C59 C 0.5541(5) -0.1748(5) 0.1443(3)
H47 H 0.6087 -0.1726 0.1185
C60 C 0.5663(5) -0.2613(5) 0.1846(3)
H48 H 0.6282 -0.3187 0.1861
C61 C 0.4855(5) -0.2618(5) 0.2230(3)
H49 H 0.4922 -0.3190 0.2520
C62 C 0.3930(5) -0.1756(4) 0.2180(3)
H50 H 0.3379 -0.1771 0.2437
C63 C 0.5511(4) 0.1048(4) 0.2060(3)
H51 H 0.5259 0.0629 0.1921
H52 H 0.6227 0.0848 0.1929
C64 C 0.4885(4) 0.2138(4) 0.1785(3)
C65 C 0.5053(5) 0.2581(5) 0.1197(3)
H53 H 0.5608 0.2219 0.0960
C66 C 0.4395(5) 0.3562(5) 0.0960(3)
H54 H 0.4482 0.3866 0.0559
C67 C 0.3603(5) 0.4078(5) 0.1337(3)
H55 H 0.3157 0.4746 0.1193
C68 C 0.3470(4) 0.3616(4) 0.1917(3)
H56 H 0.2931 0.3979 0.2162
C69 C 0.6137(4) 0.1240(5) 0.2977(3)
H57 H 0.6441 0.1540 0.2628
H58 H 0.6690 0.0653 0.3197
C70 C 0.5611(5) 0.1980(5) 0.3392(3)
C71 C 0.6162(5) 0.2265(5) 0.3714(3)
H59 H 0.6879 0.1969 0.3694
C72 C 0.5647(5) 0.2995(5) 0.4069(3)
H60 H 0.6005 0.3188 0.4298
C73 C 0.4579(5) 0.3429(5) 0.4070(3)
H61 H 0.4206 0.3934 0.4294
C74 C 0.4075(5) 0.3113(5) 0.3743(3)
H62 H 0.3358 0.3401 0.3758
C75 C 0.5597(5) -0.0135(4) 0.3048(3)
H63 H 0.5365 -0.0426 0.2783
H64 H 0.6326 -0.0547 0.3118
C76 C 0.5017(5) -0.0117(4) 0.3646(3)
C77 C 0.5303(6) -0.0939(5) 0.4124(3)
H65 H 0.5905 -0.1516 0.4096
C78 C 0.4672(6) -0.0885(6) 0.4648(4)
H66 H 0.4845 -0.1433 0.4974
C79 C 0.3790(6) -0.0019(6) 0.4683(3)
H67 H 0.3356 0.0029 0.5029
C80 C 0.3570(5) 0.0781(5) 0.4188(3)
H68 H 0.2988 0.1376 0.4214
P1 P 0.37399(13) 0.67915(12) 0.06079(7)
F1 F 0.4061(3) 0.6020(3) 0.12444(16)
F2 F 0.4867(3) 0.6752(3) 0.05062(18)
F3 F 0.3392(3) 0.7578(3) -0.00358(15)
F4 F 0.2602(3) 0.6830(3) 0.06933(16)
F5 F 0.4080(3) 0.5878(3) 0.02447(17)
F6 F 0.3388(3) 0.7699(3) 0.09591(16)
P2 P 0.40387(13) 0.66536(14) 0.41240(8)
F7 F 0.4925(3) 0.6470(3) 0.45657(17)
F8 F 0.4861(3) 0.5834(3) 0.37573(18)
F9 F 0.3168(3) 0.6838(3) 0.36648(19)
F10 F 0.3220(3) 0.7473(3) 0.44846(18)
F11 F 0.3789(3) 0.5795(3) 0.45744(19)
F12 F 0.4267(3) 0.7515(3) 0.36646(17)
P3 P 0.83189(13) 0.83599(13) 0.13450(8)
F13 F 0.9328(3) 0.7909(3) 0.09359(18)
F14 F 0.9007(3) 0.8112(3) 0.19247(17)
F15 F 0.8317(3) 0.9449(3) 0.1156(2)
F16 F 0.7297(3) 0.8824(3) 0.17431(18)
F17 F 0.7636(3) 0.8601(3) 0.07552(17)
F18 F 0.8305(3) 0.7283(3) 0.15397(17)
P4 P 0.86351(15) 0.82679(15) 0.41840(8)
F19 F 0.8301(3) 0.8280(3) 0.48864(17)
F20 F 0.7671(3) 0.9326(3) 0.39930(18)
F21 F 0.8965(4) 0.8264(3) 0.34810(18)
F22 F 0.9599(3) 0.7237(3) 0.4385(2)
F23 F 0.9298(3) 0.8869(4) 0.42282(19)
F24 F 0.7934(4) 0.7709(4) 0.4145(2)
loop_
_geom_bond_atom_site_label_1
_geom_bond_atom_site_label_2
_geom_bond_site_symmetry_1
_geom_bond_site_symmetry_2
Fe1 N5 1_555 1_555
Fe2 N1 1_555 1_555
Fe3 N13 1_555 1_555
Fe4 N3 1_555 1_555
P1 F1 1_555 1_555
P2 F7 1_555 1_555
P3 F13 1_555 1_555
P4 F19 1_555 1_555
F2 P1 1_555 1_555
F3 P1 1_555 1_555
F4 P1 1_555 1_555
F5 P1 1_555 1_555
F6 P1 1_555 1_555
F8 P2 1_555 1_555
F9 P2 1_555 1_555
F10 P2 1_555 1_555
F11 P2 1_555 1_555
F12 P2 1_555 1_555
F14 P3 1_555 1_555
F15 P3 1_555 1_555
F16 P3 1_555 1_555
F17 P3 1_555 1_555
F18 P3 1_555 1_555
F20 P4 1_555 1_555
F21 P4 1_555 1_555
F22 P4 1_555 1_555
F23 P4 1_555 1_555
F24 P4 1_555 1_555
N1 C1 1_555 1_555
N2 Fe2 1_555 1_555
N3 C3 1_555 1_555
N4 Fe4 1_555 1_555
N5 C5 1_555 1_555
N6 Fe1 1_555 1_555
N7 Fe1 1_555 1_555
N8 Fe1 1_555 1_555
N9 Fe2 1_555 1_555
N10 Fe2 1_555 1_555
N11 Fe2 1_555 1_555
N12 Fe2 1_555 1_555
N13 C43 1_555 1_555
N14 Fe3 1_555 1_555
N15 Fe3 1_555 1_555
N16 Fe3 1_555 1_555
N17 Fe4 1_555 1_555
N18 Fe4 1_555 1_555
N19 Fe4 1_555 1_555
N20 Fe4 1_555 1_555
C1 Fe1 1_555 1_555
C2 Fe3 1_555 1_555
C3 Fe3 1_555 1_555
C4 Fe1 1_555 1_555
C5 H1 1_555 1_555
C6 C5 1_555 1_555
H2 C6 1_555 1_555
C7 C6 1_555 1_555
H3 C7 1_555 1_555
C8 C7 1_555 1_555
H4 C8 1_555 1_555
C9 N5 1_555 1_555
C10 N6 1_555 1_555
C11 C10 1_555 1_555
H5 C11 1_555 1_555
C12 C11 1_555 1_555
H6 C12 1_555 1_555
C13 C12 1_555 1_555
H7 C13 1_555 1_555
C14 N6 1_555 1_555
H8 C14 1_555 1_555
C15 N7 1_555 1_555
H9 C15 1_555 1_555
C16 C15 1_555 1_555
H10 C16 1_555 1_555
C17 C16 1_555 1_555
H11 C17 1_555 1_555
C18 C17 1_555 1_555
H12 C18 1_555 1_555
C19 N7 1_555 1_555
C20 N8 1_555 1_555
C21 C20 1_555 1_555
H13 C21 1_555 1_555
C22 C21 1_555 1_555
H14 C22 1_555 1_555
C23 C22 1_555 1_555
H15 C23 1_555 1_555
C24 N8 1_555 1_555
H16 C24 1_555 1_555
C25 N9 1_555 1_555
H17 C25 1_555 1_555
H18 C25 1_555 1_555
C26 N10 1_555 1_555
C27 C26 1_555 1_555
H19 C27 1_555 1_555
C28 C27 1_555 1_555
H20 C28 1_555 1_555
C29 C28 1_555 1_555
H21 C29 1_555 1_555
C30 N10 1_555 1_555
H22 C30 1_555 1_555
C31 N9 1_555 1_555
H23 C31 1_555 1_555
H24 C31 1_555 1_555
C32 N11 1_555 1_555
C33 C32 1_555 1_555
H25 C33 1_555 1_555
C34 C33 1_555 1_555
H26 C34 1_555 1_555
C35 C34 1_555 1_555
H27 C35 1_555 1_555
C36 N11 1_555 1_555
H28 C36 1_555 1_555
C37 N9 1_555 1_555
H29 C37 1_555 1_555
H30 C37 1_555 1_555
C38 N12 1_555 1_555
C39 C38 1_555 1_555
H31 C39 1_555 1_555
C40 C39 1_555 1_555
H32 C40 1_555 1_555
C41 C40 1_555 1_555
H33 C41 1_555 1_555
C42 N12 1_555 1_555
H34 C42 1_555 1_555
C43 H35 1_555 1_555
C44 C43 1_555 1_555
H36 C44 1_555 1_555
C45 C44 1_555 1_555
H37 C45 1_555 1_555
C46 C45 1_555 1_555
H38 C46 1_555 1_555
C47 N13 1_555 1_555
C48 N14 1_555 1_555
C49 C48 1_555 1_555
H39 C49 1_555 1_555
C50 C49 1_555 1_555
H40 C50 1_555 1_555
C51 C50 1_555 1_555
H41 C51 1_555 1_555
C52 N14 1_555 1_555
H42 C52 1_555 1_555
C53 N15 1_555 1_555
H43 C53 1_555 1_555
C54 C53 1_555 1_555
H44 C54 1_555 1_555
C55 C54 1_555 1_555
H45 C55 1_555 1_555
C56 C55 1_555 1_555
H46 C56 1_555 1_555
C57 N15 1_555 1_555
C58 N16 1_555 1_555
C59 C58 1_555 1_555
H47 C59 1_555 1_555
C60 C59 1_555 1_555
H48 C60 1_555 1_555
C61 C60 1_555 1_555
H49 C61 1_555 1_555
C62 N16 1_555 1_555
H50 C62 1_555 1_555
C63 N17 1_555 1_555
H51 C63 1_555 1_555
H52 C63 1_555 1_555
C64 N18 1_555 1_555
C65 C64 1_555 1_555
H53 C65 1_555 1_555
C66 C65 1_555 1_555
H54 C66 1_555 1_555
C67 C66 1_555 1_555
H55 C67 1_555 1_555
C68 N18 1_555 1_555
H56 C68 1_555 1_555
C69 N17 1_555 1_555
H57 C69 1_555 1_555
H58 C69 1_555 1_555
C70 N19 1_555 1_555
C71 C70 1_555 1_555
H59 C71 1_555 1_555
C72 C71 1_555 1_555
H60 C72 1_555 1_555
C73 C72 1_555 1_555
H61 C73 1_555 1_555
C74 N19 1_555 1_555
H62 C74 1_555 1_555
C75 N17 1_555 1_555
H63 C75 1_555 1_555
H64 C75 1_555 1_555
C76 N20 1_555 1_555
C77 C76 1_555 1_555
H65 C77 1_555 1_555
C78 C77 1_555 1_555
H66 C78 1_555 1_555
C79 C78 1_555 1_555
H67 C79 1_555 1_555
C80 N20 1_555 1_555
H68 C80 1_555 1_555
N2 C2 1_555 1_555
N4 C4 1_555 1_555
C8 C9 1_555 1_555
C9 C10 1_555 1_555
C13 C14 1_555 1_555
C18 C19 1_555 1_555
C19 C20 1_555 1_555
C23 C24 1_555 1_555
C25 C26 1_555 1_555
C29 C30 1_555 1_555
C31 C32 1_555 1_555
C35 C36 1_555 1_555
C37 C38 1_555 1_555
C41 C42 1_555 1_555
C46 C47 1_555 1_555
C47 C48 1_555 1_555
C51 C52 1_555 1_555
C56 C57 1_555 1_555
C57 C58 1_555 1_555
C61 C62 1_555 1_555
C63 C64 1_555 1_555
C67 C68 1_555 1_555
C69 C70 1_555 1_555
C73 C74 1_555 1_555
C75 C76 1_555 1_555
C79 C80 1_555 1_555

#END
