
#######################################################################
#
#                 Cambridge Crystallographic Data Centre
#                                CCDC 
#
#######################################################################
#
# If this CIF has been generated from an entry in the Cambridge 
# Structural Database, then it will include bibliographic, chemical, 
# crystal, experimental, refinement or atomic coordinate data resulting 
# from the CCDC's data processing and validation procedures.
#
#######################################################################

data_TEFKOG
_chemical_formula_moiety         'C98 H74 B4 Co2 Fe4 N54,2(C3 H8 O1),4(H2 O1)'
_chemical_name_systematic        
"hexakis(\m~2~-Cyano)-tetrakis(2,2'-pyridine-2,6-diylbis(1H-benzimidazole))-bis(1,1',1'',1'''-\l^5^-boranetetrayltetrakis(1H-pyrazole))-di-cobalt-tetra-iron propanol solvate tetrahydrate"
_symmetry_cell_setting           triclinic
_symmetry_space_group_name_H-M   'P -1'
_symmetry_Int_Tables_number      2
_space_group_name_Hall           '-P 1'
loop_
_symmetry_equiv_pos_site_id
_symmetry_equiv_pos_as_xyz
1 x,y,z
2 -x,-y,-z
_cell_length_a                   12.556(6)
_cell_length_b                   14.093(6)
_cell_length_c                   18.158(8)
_cell_angle_alpha                73.463(6)
_cell_angle_beta                 70.170(6)
_cell_angle_gamma                85.044(6)
_cell_volume                     2897.35
_exptl_crystal_colour            red
_exptl_crystal_description       plate
_cell_formula_units_Z            1
loop_
_atom_site_label
_atom_site_type_symbol
_atom_site_fract_x
_atom_site_fract_y
_atom_site_fract_z
Fe1 Fe 1.09337(8) 0.13727(7) 0.78054(6)
Fe2 Fe 0.45105(8) 0.26537(7) 1.26427(6)
Co1 Co 0.77349(7) 0.16500(7) 1.04189(5)
N1 N 0.9300(5) 0.1545(4) 0.9457(4)
N2 N 0.8210(5) 0.0506(5) 1.1223(4)
N3 N 1.2692(6) 0.2485(5) 0.8093(4)
N4 N 0.6181(5) 0.1780(4) 1.1342(4)
N5 N 0.2785(6) 0.2997(5) 1.1734(4)
N6 N 0.3266(6) 0.0676(5) 1.3623(4)
N7 N 1.2003(5) 0.1303(4) 0.6755(3)
N8 N 1.0346(4) 0.2602(4) 0.7236(3)
N9 N 0.9850(4) 0.0640(4) 0.7609(3)
N10 N 1.1687(5) 0.1533(4) 0.6075(3)
N11 N 1.0137(5) 0.2694(4) 0.6523(3)
N12 N 0.9710(5) 0.0908(4) 0.6858(3)
N13 N 0.5292(4) 0.3912(4) 1.2030(4)
N14 N 0.5567(5) 0.2388(5) 1.3264(4)
N15 N 0.3520(5) 0.3358(4) 1.3426(3)
N16 N 0.5575(5) 0.4486(5) 1.2434(4)
N17 N 0.5776(5) 0.3089(5) 1.3588(4)
N18 N 0.3954(5) 0.3983(5) 1.3707(4)
N19 N 0.6986(4) 0.0999(4) 0.9795(3)
N20 N 0.7384(4) 0.2864(4) 0.9538(3)
N21 N 0.8318(4) 0.2924(4) 1.0596(3)
N22 N 0.6246(5) 0.1183(4) 0.8810(3)
H1 H 0.6010 0.1470 0.8402
N23 N 0.8478(4) 0.4577(4) 1.0248(4)
H2 H 0.8462 0.5193 0.9977
N24 N 1.0169(5) 0.1880(5) 0.5411(4)
N25 N 0.9549(6) 0.2641(5) 0.5116(4)
N26 N 0.5727(6) 0.4846(6) 1.3655(4)
N27 N 0.5093(7) 0.5547(7) 1.3983(5)
C1 C 0.9908(6) 0.1462(5) 0.8839(4)
C2 C 1.1477(5) 0.0194(6) 0.8396(4)
C3 C 1.2030(6) 0.2096(5) 0.7977(4)
C4 C 0.5509(6) 0.2057(5) 1.1847(4)
C5 C 0.3455(7) 0.2871(5) 1.2068(5)
C6 C 0.3736(6) 0.1416(6) 1.3246(5)
C7 C 1.3114(6) 0.1133(6) 0.6503(5)
H3 H 1.3564 0.0962 0.6841
C8 C 1.3508(7) 0.1244(6) 0.5676(5)
H4 H 1.4253 0.1156 0.5352
C9 C 1.2593(7) 0.1506(5) 0.5427(4)
H5 H 1.2595 0.1645 0.4888
C10 C 1.0044(6) 0.3452(5) 0.7422(4)
H6 H 1.0091 0.3591 0.7887
C11 C 0.9650(7) 0.4113(6) 0.6843(5)
H7 H 0.9396 0.4762 0.6832
C12 C 0.9717(6) 0.3604(5) 0.6293(5)
H8 H 0.9504 0.3848 0.5825
C13 C 0.9170(6) -0.0141(6) 0.8060(5)
H9 H 0.9101 -0.0479 0.8601
C14 C 0.8589(6) -0.0376(6) 0.7618(5)
H10 H 0.8057 -0.0891 0.7792
C15 C 0.8939(6) 0.0286(6) 0.6879(5)
H11 H 0.8683 0.0309 0.6445
C16 C 0.5569(6) 0.4449(6) 1.1254(5)
H12 H 0.5456 0.4242 1.0837
C17 C 0.6041(6) 0.5345(6) 1.1145(5)
H13 H 0.6316 0.5847 1.0657
C18 C 0.6019(6) 0.5342(6) 1.1905(6)
H14 H 0.6277 0.5861 1.2034
C19 C 0.6063(6) 0.1564(6) 1.3572(5)
H15 H 0.6064 0.0960 1.3450
C20 C 0.6570(7) 0.1716(8) 1.4088(5)
H16 H 0.6964 0.1252 1.4383
C21 C 0.6381(7) 0.2679(8) 1.4082(5)
H17 H 0.6632 0.3008 1.4377
C22 C 0.2399(6) 0.3388(5) 1.3751(4)
H18 H 0.1882 0.3034 1.3655
C23 C 0.2104(7) 0.4012(6) 1.4249(5)
H19 H 0.1368 0.4147 1.4559
C24 C 0.3095(8) 0.4395(6) 1.4203(5)
H20 H 0.3169 0.4860 1.4466
C25 C 0.6687(5) 0.0077(5) 0.9802(4)
C26 C 0.6794(6) -0.0857(5) 1.0299(5)
H21 H 0.7115 -0.0938 1.0711
C27 C 0.6412(6) -0.1651(6) 1.0162(5)
H22 H 0.6470 -0.2290 1.0488
C28 C 0.5939(6) -0.1531(6) 0.9551(5)
H23 H 0.5681 -0.2096 0.9482
C29 C 0.5834(6) -0.0629(6) 0.9050(5)
H24 H 0.5520 -0.0561 0.8636
C30 C 0.6215(6) 0.0183(6) 0.9180(4)
C31 C 0.6710(5) 0.1641(5) 0.9195(4)
C32 C 0.6927(6) 0.2690(5) 0.9013(4)
C33 C 0.6727(6) 0.3461(6) 0.8391(5)
H25 H 0.6394 0.3340 0.8034
C34 C 0.7039(7) 0.4404(6) 0.8327(5)
H26 H 0.6909 0.4938 0.7920
C35 C 0.7538(6) 0.4581(6) 0.8846(5)
H27 H 0.7763 0.5224 0.8791
C36 C 0.7694(5) 0.3778(5) 0.9451(4)
C37 C 0.8186(5) 0.3779(5) 1.0083(4)
C38 C 0.8807(6) 0.4221(6) 1.0931(4)
C39 C 0.9157(6) 0.4718(6) 1.1381(5)
H28 H 0.9207 0.5412 1.1242
C40 C 0.9420(7) 0.4125(7) 1.2032(5)
H29 H 0.9670 0.4423 1.2347
C41 C 0.9332(7) 0.3093(7) 1.2251(5)
H30 H 0.9525 0.2723 1.2707
C42 C 0.8976(6) 0.2605(6) 1.1826(4)
H31 H 0.8918 0.1911 1.1977
C43 C 0.8702(6) 0.3198(5) 1.1149(4)
C44 C 1.0442(8) 0.1275(7) 0.4927(5)
H32 H 1.0888 0.0706 0.4993
C45 C 0.9977(8) 0.1607(7) 0.4323(5)
H33 H 1.0017 0.1320 0.3907
C46 C 0.9444(8) 0.2447(8) 0.4462(6)
H34 H 0.9045 0.2850 0.4136
C47 C 0.6832(8) 0.4998(8) 1.3541(6)
H35 H 0.7442 0.4615 1.3318
C48 C 0.6911(10) 0.5784(9) 1.3798(6)
H36 H 0.7572 0.6065 1.3783
C49 C 0.5843(12) 0.6084(9) 1.4080(7)
H37 H 0.5641 0.6612 1.4320
B1 B 1.0419(7) 0.1779(6) 0.6180(5)
B2 B 0.5277(8) 0.4127(8) 1.3364(6)
Fe1A Fe 0.90663(8) -0.13727(7) 1.21946(6)
Fe2A Fe 1.54895(8) -0.26537(7) 0.73573(6)
Co1A Co 1.22651(7) -0.16500(7) 0.95811(5)
N1A N 1.0700(5) -0.1545(4) 1.0543(4)
N2A N 1.1790(5) -0.0506(5) 0.8777(4)
N3A N 0.7308(6) -0.2485(5) 1.1907(4)
N4A N 1.3819(5) -0.1780(4) 0.8658(4)
N5A N 1.7215(6) -0.2997(5) 0.8266(4)
N6A N 1.6734(6) -0.0676(5) 0.6377(4)
N7A N 0.7997(5) -0.1303(4) 1.3245(3)
N8A N 0.9654(4) -0.2602(4) 1.2764(3)
N9A N 1.0150(4) -0.0640(4) 1.2391(3)
N10A N 0.8313(5) -0.1533(4) 1.3925(3)
N11A N 0.9863(5) -0.2694(4) 1.3477(3)
N12A N 1.0290(5) -0.0908(4) 1.3142(3)
N13A N 1.4708(4) -0.3912(4) 0.7970(4)
N14A N 1.4433(5) -0.2388(5) 0.6736(4)
N15A N 1.6480(5) -0.3358(4) 0.6574(3)
N16A N 1.4425(5) -0.4486(5) 0.7566(4)
N17A N 1.4224(5) -0.3089(5) 0.6412(4)
N18A N 1.6046(5) -0.3983(5) 0.6293(4)
N19A N 1.3014(4) -0.0999(4) 1.0205(3)
N20A N 1.2616(4) -0.2864(4) 1.0462(3)
N21A N 1.1682(4) -0.2924(4) 0.9404(3)
N22A N 1.3754(5) -0.1183(4) 1.1190(3)
H1A H 1.3990 -0.1470 1.1598
N23A N 1.1522(4) -0.4577(4) 0.9752(4)
H2A H 1.1538 -0.5193 1.0023
N24A N 0.9831(5) -0.1880(5) 1.4589(4)
N25A N 1.0451(6) -0.2641(5) 1.4884(4)
N26A N 1.4273(6) -0.4846(6) 0.6345(4)
N27A N 1.4907(7) -0.5547(7) 0.6017(5)
C1A C 1.0092(6) -0.1462(5) 1.1161(4)
C2A C 0.8523(5) -0.0194(6) 1.1604(4)
C3A C 0.7970(6) -0.2096(5) 1.2023(4)
C4A C 1.4491(6) -0.2057(5) 0.8153(4)
C5A C 1.6545(7) -0.2871(5) 0.7932(5)
C6A C 1.6264(6) -0.1416(6) 0.6754(5)
C7A C 0.6886(6) -0.1133(6) 1.3497(5)
H3A H 0.6436 -0.0962 1.3159
C8A C 0.6492(7) -0.1244(6) 1.4324(5)
H4A H 0.5747 -0.1156 1.4648
C9A C 0.7407(7) -0.1506(5) 1.4573(4)
H5A H 0.7405 -0.1645 1.5112
C10A C 0.9956(6) -0.3452(5) 1.2578(4)
H6A H 0.9909 -0.3591 1.2113
C11A C 1.0350(7) -0.4113(6) 1.3157(5)
H7A H 1.0604 -0.4762 1.3168
C12A C 1.0283(6) -0.3604(5) 1.3707(5)
H8A H 1.0496 -0.3848 1.4175
C13A C 1.0830(6) 0.0141(6) 1.1940(5)
H9A H 1.0899 0.0479 1.1399
C14A C 1.1411(6) 0.0376(6) 1.2382(5)
H10A H 1.1943 0.0891 1.2208
C15A C 1.1061(6) -0.0286(6) 1.3121(5)
H11A H 1.1317 -0.0309 1.3555
C16A C 1.4431(6) -0.4449(6) 0.8746(5)
H12A H 1.4544 -0.4242 0.9163
C17A C 1.3959(6) -0.5345(6) 0.8855(5)
H13A H 1.3684 -0.5847 0.9343
C18A C 1.3981(6) -0.5342(6) 0.8095(6)
H14A H 1.3723 -0.5861 0.7966
C19A C 1.3937(6) -0.1564(6) 0.6428(5)
H15A H 1.3936 -0.0960 0.6550
C20A C 1.3430(7) -0.1716(8) 0.5912(5)
H16A H 1.3036 -0.1252 0.5617
C21A C 1.3619(7) -0.2679(8) 0.5918(5)
H17A H 1.3368 -0.3008 0.5623
C22A C 1.7601(6) -0.3388(5) 0.6249(4)
H18A H 1.8118 -0.3034 0.6345
C23A C 1.7896(7) -0.4012(6) 0.5751(5)
H19A H 1.8632 -0.4147 0.5441
C24A C 1.6905(8) -0.4395(6) 0.5797(5)
H20A H 1.6831 -0.4860 0.5534
C25A C 1.3313(5) -0.0077(5) 1.0198(4)
C26A C 1.3206(6) 0.0857(5) 0.9701(5)
H21A H 1.2885 0.0938 0.9289
C27A C 1.3588(6) 0.1651(6) 0.9838(5)
H22A H 1.3530 0.2290 0.9512
C28A C 1.4061(6) 0.1531(6) 1.0449(5)
H23A H 1.4319 0.2096 1.0518
C29A C 1.4166(6) 0.0629(6) 1.0950(5)
H24A H 1.4480 0.0561 1.1364
C30A C 1.3785(6) -0.0183(6) 1.0820(4)
C31A C 1.3290(5) -0.1641(5) 1.0805(4)
C32A C 1.3073(6) -0.2690(5) 1.0987(4)
C33A C 1.3273(6) -0.3461(6) 1.1609(5)
H25A H 1.3606 -0.3340 1.1966
C34A C 1.2961(7) -0.4404(6) 1.1673(5)
H26A H 1.3091 -0.4938 1.2080
C35A C 1.2462(6) -0.4581(6) 1.1154(5)
H27A H 1.2237 -0.5224 1.1209
C36A C 1.2306(5) -0.3778(5) 1.0549(4)
C37A C 1.1814(5) -0.3779(5) 0.9917(4)
C38A C 1.1193(6) -0.4221(6) 0.9069(4)
C39A C 1.0843(6) -0.4718(6) 0.8619(5)
H28A H 1.0793 -0.5412 0.8758
C40A C 1.0580(7) -0.4125(7) 0.7968(5)
H29A H 1.0330 -0.4423 0.7653
C41A C 1.0668(7) -0.3093(7) 0.7749(5)
H30A H 1.0475 -0.2723 0.7293
C42A C 1.1024(6) -0.2605(6) 0.8174(4)
H31A H 1.1082 -0.1911 0.8023
C43A C 1.1298(6) -0.3198(5) 0.8851(4)
C44A C 0.9558(8) -0.1275(7) 1.5073(5)
H32A H 0.9112 -0.0706 1.5007
C45A C 1.0023(8) -0.1607(7) 1.5677(5)
H33A H 0.9983 -0.1320 1.6093
C46A C 1.0556(8) -0.2447(8) 1.5538(6)
H34A H 1.0955 -0.2850 1.5864
C47A C 1.3168(8) -0.4998(8) 0.6459(6)
H35A H 1.2558 -0.4615 0.6682
C48A C 1.3089(10) -0.5784(9) 0.6202(6)
H36A H 1.2428 -0.6065 0.6217
C49A C 1.4157(12) -0.6084(9) 0.5920(7)
H37A H 1.4359 -0.6612 0.5680
B1A B 0.9581(7) -0.1779(6) 1.3820(5)
B2A B 1.4723(8) -0.4127(8) 0.6636(6)
O1 O 0.5156(5) 0.2121(5) 0.7714(4)
C50 C 0.555(2) 0.169(3) 0.7041(15)
C51 C 0.654(3) 0.236(3) 0.654(2)
C52 C 0.7030(14) 0.3116(12) 0.5781(15)
O2 O 0.8203(4) 0.6518(3) 0.9487(3)
O3 O 0.9069(7) 0.7557(12) 0.0118(9)
loop_
_geom_bond_atom_site_label_1
_geom_bond_atom_site_label_2
_geom_bond_site_symmetry_1
_geom_bond_site_symmetry_2
Fe1 N7 1_555 1_555
Fe2 N13 1_555 1_555
Co1 N1 1_555 1_555
N1 C1 1_555 1_555
N2 Co1 1_555 1_555
N3 C3 1_555 1_555
N4 Co1 1_555 1_555
N5 C5 1_555 1_555
N6 C6 1_555 1_555
N7 N10 1_555 1_555
N8 Fe1 1_555 1_555
N9 Fe1 1_555 1_555
N10 C9 1_555 1_555
N11 N8 1_555 1_555
N12 N9 1_555 1_555
N13 N16 1_555 1_555
N14 Fe2 1_555 1_555
N15 Fe2 1_555 1_555
N16 C18 1_555 1_555
N17 N14 1_555 1_555
N18 N15 1_555 1_555
N19 Co1 1_555 1_555
N20 Co1 1_555 1_555
N21 Co1 1_555 1_555
N22 H1 1_555 1_555
N23 H2 1_555 1_555
N24 N25 1_555 1_555
N25 C46 1_555 1_555
N26 N27 1_555 1_555
N27 C49 1_555 1_555
C1 Fe1 1_555 1_555
C2 Fe1 1_555 1_555
C3 Fe1 1_555 1_555
C4 Fe2 1_555 1_555
C5 Fe2 1_555 1_555
C6 Fe2 1_555 1_555
C7 N7 1_555 1_555
H3 C7 1_555 1_555
C8 C7 1_555 1_555
H4 C8 1_555 1_555
C9 C8 1_555 1_555
H5 C9 1_555 1_555
C10 N8 1_555 1_555
H6 C10 1_555 1_555
C11 C10 1_555 1_555
H7 C11 1_555 1_555
C12 N11 1_555 1_555
H8 C12 1_555 1_555
C13 N9 1_555 1_555
H9 C13 1_555 1_555
C14 C13 1_555 1_555
H10 C14 1_555 1_555
C15 N12 1_555 1_555
H11 C15 1_555 1_555
C16 N13 1_555 1_555
H12 C16 1_555 1_555
C17 C16 1_555 1_555
H13 C17 1_555 1_555
C18 C17 1_555 1_555
H14 C18 1_555 1_555
C19 N14 1_555 1_555
H15 C19 1_555 1_555
C20 C19 1_555 1_555
H16 C20 1_555 1_555
C21 N17 1_555 1_555
H17 C21 1_555 1_555
C22 N15 1_555 1_555
H18 C22 1_555 1_555
C23 C22 1_555 1_555
H19 C23 1_555 1_555
C24 N18 1_555 1_555
H20 C24 1_555 1_555
C25 N19 1_555 1_555
C26 C25 1_555 1_555
H21 C26 1_555 1_555
C27 C26 1_555 1_555
H22 C27 1_555 1_555
C28 C27 1_555 1_555
H23 C28 1_555 1_555
C29 C28 1_555 1_555
H24 C29 1_555 1_555
C30 N22 1_555 1_555
C31 N19 1_555 1_555
C32 N20 1_555 1_555
C33 C32 1_555 1_555
H25 C33 1_555 1_555
C34 C33 1_555 1_555
H26 C34 1_555 1_555
C35 C34 1_555 1_555
H27 C35 1_555 1_555
C36 N20 1_555 1_555
C37 N21 1_555 1_555
C38 N23 1_555 1_555
C39 C38 1_555 1_555
H28 C39 1_555 1_555
C40 C39 1_555 1_555
H29 C40 1_555 1_555
C41 C40 1_555 1_555
H30 C41 1_555 1_555
C42 C41 1_555 1_555
H31 C42 1_555 1_555
C43 N21 1_555 1_555
C44 N24 1_555 1_555
H32 C44 1_555 1_555
C45 C44 1_555 1_555
H33 C45 1_555 1_555
C46 C45 1_555 1_555
H34 C46 1_555 1_555
C47 N26 1_555 1_555
H35 C47 1_555 1_555
C48 C47 1_555 1_555
H36 C48 1_555 1_555
C49 C48 1_555 1_555
H37 C49 1_555 1_555
B1 N10 1_555 1_555
B2 N16 1_555 1_555
O1 C50 1_555 1_555
C50 C51 1_555 1_555
C51 C52 1_555 1_555
Fe1A N7A 1_555 1_555
Fe2A N13A 1_555 1_555
Co1A N1A 1_555 1_555
N1A C1A 1_555 1_555
N2A C2 1_555 1_555
N3A C3A 1_555 1_555
N4A Co1A 1_555 1_555
N5A C5A 1_555 1_555
N6A C6A 1_555 1_555
N7A N10A 1_555 1_555
N8A Fe1A 1_555 1_555
N9A Fe1A 1_555 1_555
N10A C9A 1_555 1_555
N11A N8A 1_555 1_555
N12A N9A 1_555 1_555
N13A N16A 1_555 1_555
N14A Fe2A 1_555 1_555
N15A Fe2A 1_555 1_555
N16A C18A 1_555 1_555
N17A N14A 1_555 1_555
N18A N15A 1_555 1_555
N19A Co1A 1_555 1_555
N20A Co1A 1_555 1_555
N21A Co1A 1_555 1_555
N22A H1A 1_555 1_555
N23A H2A 1_555 1_555
N24A N25A 1_555 1_555
N25A C46A 1_555 1_555
N26A N27A 1_555 1_555
N27A C49A 1_555 1_555
C1A Fe1A 1_555 1_555
C2A N2 1_555 1_555
C3A Fe1A 1_555 1_555
C4A Fe2A 1_555 1_555
C5A Fe2A 1_555 1_555
C6A Fe2A 1_555 1_555
C7A N7A 1_555 1_555
H3A C7A 1_555 1_555
C8A C7A 1_555 1_555
H4A C8A 1_555 1_555
C9A C8A 1_555 1_555
H5A C9A 1_555 1_555
C10A N8A 1_555 1_555
H6A C10A 1_555 1_555
C11A C10A 1_555 1_555
H7A C11A 1_555 1_555
C12A N11A 1_555 1_555
H8A C12A 1_555 1_555
C13A N9A 1_555 1_555
H9A C13A 1_555 1_555
C14A C13A 1_555 1_555
H10A C14A 1_555 1_555
C15A N12A 1_555 1_555
H11A C15A 1_555 1_555
C16A N13A 1_555 1_555
H12A C16A 1_555 1_555
C17A C16A 1_555 1_555
H13A C17A 1_555 1_555
C18A C17A 1_555 1_555
H14A C18A 1_555 1_555
C19A N14A 1_555 1_555
H15A C19A 1_555 1_555
C20A C19A 1_555 1_555
H16A C20A 1_555 1_555
C21A N17A 1_555 1_555
H17A C21A 1_555 1_555
C22A N15A 1_555 1_555
H18A C22A 1_555 1_555
C23A C22A 1_555 1_555
H19A C23A 1_555 1_555
C24A N18A 1_555 1_555
H20A C24A 1_555 1_555
C25A N19A 1_555 1_555
C26A C25A 1_555 1_555
H21A C26A 1_555 1_555
C27A C26A 1_555 1_555
H22A C27A 1_555 1_555
C28A C27A 1_555 1_555
H23A C28A 1_555 1_555
C29A C28A 1_555 1_555
H24A C29A 1_555 1_555
C30A N22A 1_555 1_555
C31A N19A 1_555 1_555
C32A N20A 1_555 1_555
C33A C32A 1_555 1_555
H25A C33A 1_555 1_555
C34A C33A 1_555 1_555
H26A C34A 1_555 1_555
C35A C34A 1_555 1_555
H27A C35A 1_555 1_555
C36A N20A 1_555 1_555
C37A N21A 1_555 1_555
C38A N23A 1_555 1_555
C39A C38A 1_555 1_555
H28A C39A 1_555 1_555
C40A C39A 1_555 1_555
H29A C40A 1_555 1_555
C41A C40A 1_555 1_555
H30A C41A 1_555 1_555
C42A C41A 1_555 1_555
H31A C42A 1_555 1_555
C43A N21A 1_555 1_555
C44A N24A 1_555 1_555
H32A C44A 1_555 1_555
C45A C44A 1_555 1_555
H33A C45A 1_555 1_555
C46A C45A 1_555 1_555
H34A C46A 1_555 1_555
C47A N26A 1_555 1_555
H35A C47A 1_555 1_555
C48A C47A 1_555 1_555
H36A C48A 1_555 1_555
C49A C48A 1_555 1_555
H37A C49A 1_555 1_555
B1A N10A 1_555 1_555
B2A N16A 1_555 1_555
N4 C4 1_555 1_555
N11 B1 1_555 1_555
N12 B1 1_555 1_555
N17 B2 1_555 1_555
N18 B2 1_555 1_555
N22 C31 1_555 1_555
N23 C37 1_555 1_555
N24 B1 1_555 1_555
N26 B2 1_555 1_555
C11 C12 1_555 1_555
C14 C15 1_555 1_555
C20 C21 1_555 1_555
C23 C24 1_555 1_555
C25 C30 1_555 1_555
C29 C30 1_555 1_555
C31 C32 1_555 1_555
C35 C36 1_555 1_555
C36 C37 1_555 1_555
C38 C43 1_555 1_555
C42 C43 1_555 1_555
Fe1A C2A 1_555 1_555
Co1A N2A 1_555 1_555
N4A C4A 1_555 1_555
N11A B1A 1_555 1_555
N12A B1A 1_555 1_555
N17A B2A 1_555 1_555
N18A B2A 1_555 1_555
N22A C31A 1_555 1_555
N23A C37A 1_555 1_555
N24A B1A 1_555 1_555
N26A B2A 1_555 1_555
C11A C12A 1_555 1_555
C14A C15A 1_555 1_555
C20A C21A 1_555 1_555
C23A C24A 1_555 1_555
C25A C30A 1_555 1_555
C29A C30A 1_555 1_555
C31A C32A 1_555 1_555
C35A C36A 1_555 1_555
C36A C37A 1_555 1_555
C38A C43A 1_555 1_555
C42A C43A 1_555 1_555

#END
