
#######################################################################
#
#                 Cambridge Crystallographic Data Centre
#                                CCDC 
#
#######################################################################
#
# If this CIF has been generated from an entry in the Cambridge 
# Structural Database, then it will include bibliographic, chemical, 
# crystal, experimental, refinement or atomic coordinate data resulting 
# from the CCDC's data processing and validation procedures.
#
#######################################################################

data_TEFKOG02
_chemical_formula_moiety         'C98 H74 B4 Co2 Fe4 N54,2(C3 H8 O1),4(H2 O1)'
_chemical_name_systematic        
"hexakis(\m~2~-Cyano)-tetrakis(2,2'-pyridine-2,6-diylbis(1H-benzimidazole))-bis(1,1',1'',1'''-\l^5^-boranetetrayltetrakis(1H-pyrazole))-di-cobalt-tetra-iron propanol solvate tetrahydrate"
_symmetry_cell_setting           triclinic
_symmetry_space_group_name_H-M   'P -1'
_symmetry_Int_Tables_number      2
_space_group_name_Hall           '-P 1'
loop_
_symmetry_equiv_pos_site_id
_symmetry_equiv_pos_as_xyz
1 x,y,z
2 -x,-y,-z
_cell_length_a                   12.252(8)
_cell_length_b                   13.877(9)
_cell_length_c                   17.612(12)
_cell_angle_alpha                73.152(9)
_cell_angle_beta                 70.433(8)
_cell_angle_gamma                84.950(9)
_cell_volume                     2700.24
_exptl_crystal_colour            red
_exptl_crystal_description       plate
_cell_formula_units_Z            1
loop_
_atom_site_label
_atom_site_type_symbol
_atom_site_fract_x
_atom_site_fract_y
_atom_site_fract_z
Co1 Co 0.21692(12) 0.32460(10) 0.47062(9)
Fe1 Fe -0.10853(13) 0.36393(11) 0.70952(10)
Fe2 Fe 0.54998(14) 0.23757(12) 0.25350(10)
C1 C 0.0000(9) 0.3477(7) 0.6099(7)
C2 C -0.1578(9) 0.4850(9) 0.6475(7)
C3 C -0.2190(10) 0.2887(8) 0.6999(8)
C4 C 0.4398(9) 0.2891(7) 0.3380(7)
C5 C 0.6558(10) 0.2165(8) 0.3144(8)
C6 C 0.6213(10) 0.3688(9) 0.1933(8)
C7 C -0.3300(11) 0.3915(9) 0.8485(9)
H1 H -0.3790 0.4074 0.8147
C8 C -0.3663(12) 0.3818(10) 0.9323(8)
H2 H -0.4430 0.3884 0.9675
C9 C -0.2717(12) 0.3612(10) 0.9544(8)
H3 H -0.2694 0.3521 1.0094
C10 C 0.0799(8) 0.5157(8) 0.6795(7)
H4 H 0.0894 0.5473 0.6221
C11 C 0.1406(9) 0.5427(9) 0.7228(8)
H5 H 0.1963 0.5956 0.7020
C12 C 0.1058(10) 0.4795(9) 0.8008(8)
H6 H 0.1333 0.4784 0.8455
C13 C -0.0226(9) 0.1494(8) 0.7585(8)
H7 H -0.0318 0.1311 0.7129
C14 C 0.0203(11) 0.0865(9) 0.8194(7)
H8 H 0.0457 0.0191 0.8234
C15 C 0.0180(10) 0.1425(9) 0.8725(7)
H9 H 0.0423 0.1209 0.9206
C16 C 0.3895(10) 0.3447(10) 0.1581(7)
H10 H 0.3871 0.4062 0.1722
C17 C 0.3379(11) 0.3292(12) 0.1041(8)
H11 H 0.2959 0.3761 0.0735
C18 C 0.3617(12) 0.2287(12) 0.1047(9)
H12 H 0.3369 0.1935 0.0743
C19 C 0.4505(10) 0.0492(9) 0.3941(8)
H13 H 0.4594 0.0708 0.4382
C20 C 0.4044(10) -0.0423(9) 0.4050(8)
H14 H 0.3760 -0.0943 0.4557
C21 C 0.4084(10) -0.0420(9) 0.3274(9)
H15 H 0.3842 -0.0964 0.3140
C22 C 0.7657(11) 0.1770(9) 0.1356(8)
H16 H 0.8175 0.2167 0.1441
C23 C 0.7988(12) 0.1140(10) 0.0826(8)
H17 H 0.8754 0.1040 0.0490
C24 C 0.7026(14) 0.0707(10) 0.0881(9)
H18 H 0.6977 0.0234 0.0598
C25 C 0.1224(8) 0.2024(9) 0.3773(7)
C26 C 0.0962(10) 0.2733(10) 0.3123(7)
H19 H 0.1061 0.3434 0.3028
C27 C 0.0553(11) 0.2367(11) 0.2625(8)
H20 H 0.0331 0.2822 0.2184
C28 C 0.0457(12) 0.1306(12) 0.2762(8)
H21 H 0.0203 0.1074 0.2391
C29 C 0.0715(10) 0.0616(10) 0.3404(8)
H22 H 0.0632 -0.0086 0.3491
C30 C 0.1113(10) 0.0985(9) 0.3939(8)
C31 C 0.1708(8) 0.1250(8) 0.4894(7)
C32 C 0.2149(8) 0.1164(8) 0.5569(6)
C33 C 0.2305(9) 0.0335(8) 0.6179(7)
H23 H 0.2090 -0.0321 0.6211
C34 C 0.2787(10) 0.0489(9) 0.6744(7)
H24 H 0.2905 -0.0077 0.7166
C35 C 0.3105(9) 0.1435(8) 0.6718(7)
H25 H 0.3433 0.1527 0.7111
C36 C 0.2922(8) 0.2237(8) 0.6096(6)
C37 C 0.3157(9) 0.3301(8) 0.5908(7)
C38 C 0.3742(9) 0.4764(9) 0.5837(7)
C39 C 0.4223(9) 0.5597(9) 0.5914(8)
H26 H 0.4583 0.5534 0.6326
C40 C 0.4147(9) 0.6496(9) 0.5369(7)
H27 H 0.4460 0.7076 0.5407
C41 C 0.3629(8) 0.6610(8) 0.4754(7)
H28 H 0.3604 0.7257 0.4384
C42 C 0.3156(8) 0.5796(8) 0.4675(6)
H29 H 0.2794 0.5875 0.4261
C43 C 0.3219(9) 0.4869(8) 0.5210(7)
C44 C -0.0548(15) 0.3902(13) 0.9991(10)
H30 H -0.1066 0.4448 0.9925
C45 C 0.0044(17) 0.3653(14) 1.0595(11)
H31 H 0.0042 0.3997 1.0990
C46 C 0.0662(16) 0.2726(13) 1.0449(11)
H32 H 0.1097 0.2328 1.0781
N1 N 0.0704(8) 0.3361(6) 0.5501(5)
N2 N -0.1860(7) 0.5603(7) 0.6094(6)
N3 N -0.2889(10) 0.2402(8) 0.6951(8)
N4 N 0.3657(7) 0.3101(6) 0.3893(6)
N5 N 0.7221(8) 0.2031(7) 0.3507(7)
N6 N 0.6636(10) 0.4458(9) 0.1557(7)
N7 N -0.2170(8) 0.3758(6) 0.8203(6)
N8 N 0.0064(7) 0.4408(6) 0.7267(5)
N9 N -0.0490(7) 0.2392(6) 0.7735(5)
N10 N -0.1784(9) 0.3550(7) 0.8873(6)
N11 N 0.0237(8) 0.4174(6) 0.8033(5)
N12 N -0.0247(8) 0.2335(7) 0.8444(6)
N13 N 0.4426(9) 0.2630(8) 0.1878(6)
N14 N 0.4811(8) 0.1038(7) 0.3145(6)
N15 N 0.6555(8) 0.1737(7) 0.1709(6)
N16 N 0.4244(9) 0.1906(8) 0.1543(6)
N17 N 0.4519(8) 0.0475(8) 0.2710(7)
N18 N 0.6127(9) 0.1070(8) 0.1419(6)
N19 N 0.1602(7) 0.2163(7) 0.4412(5)
N20 N 0.2461(7) 0.2088(6) 0.5543(5)
N21 N 0.2871(7) 0.3914(6) 0.5265(5)
N22 N 0.1392(7) 0.0522(7) 0.4639(6)
H33 H 0.1372 -0.0130 0.4881
N23 N 0.3667(7) 0.3776(7) 0.6262(5)
H34 H 0.3911 0.3498 0.6692
N24 N -0.0249(11) 0.3218(10) 0.9515(7)
N25 N 0.0528(13) 0.2519(11) 0.9785(8)
B1 B -0.0498(12) 0.3311(10) 0.8737(8)
B2 B 0.4842(14) 0.0883(12) 0.1733(11)
N26 N 0.4360(13) 0.0189(10) 0.1384(9)
N27 N 0.5078(17) -0.0437(17) 0.0936(13)
C48 C 0.3213(15) -0.0056(16) 0.1512(12)
H35 H 0.2543 0.0237 0.1818
C49 C 0.3211(18) -0.0807(15) 0.1113(12)
H36 H 0.2570 -0.1056 0.1035
C50 C 0.445(2) -0.112(2) 0.0846(19)
H37 H 0.4733 -0.1690 0.0648
Co1A Co -0.21692(12) 0.67540(10) 0.52938(9)
Fe1A Fe 0.10853(13) 0.63607(11) 0.29048(10)
Fe2A Fe -0.54998(14) 0.76243(12) 0.74650(10)
C1A C 0.0000(9) 0.6523(7) 0.3901(7)
C2A C 0.1578(9) 0.5150(9) 0.3525(7)
C3A C 0.2190(10) 0.7113(8) 0.3001(8)
C4A C -0.4398(9) 0.7109(7) 0.6620(7)
C5A C -0.6558(10) 0.7835(8) 0.6856(8)
C6A C -0.6213(10) 0.6312(9) 0.8067(8)
C7A C 0.3300(11) 0.6085(9) 0.1515(9)
H1A H 0.3790 0.5926 0.1853
C8A C 0.3663(12) 0.6182(10) 0.0677(8)
H2A H 0.4430 0.6116 0.0325
C9A C 0.2717(12) 0.6388(10) 0.0456(8)
H3A H 0.2694 0.6479 -0.0094
C10A C -0.0799(8) 0.4843(8) 0.3205(7)
H4A H -0.0894 0.4527 0.3779
C11A C -0.1406(9) 0.4573(9) 0.2772(8)
H5A H -0.1963 0.4044 0.2980
C12A C -0.1058(10) 0.5205(9) 0.1992(8)
H6A H -0.1333 0.5216 0.1545
C13A C 0.0226(9) 0.8506(8) 0.2415(8)
H7A H 0.0318 0.8689 0.2871
C14A C -0.0203(11) 0.9135(9) 0.1806(7)
H8A H -0.0457 0.9809 0.1766
C15A C -0.0180(10) 0.8575(9) 0.1275(7)
H9A H -0.0423 0.8791 0.0794
C16A C -0.3895(10) 0.6553(10) 0.8419(7)
H10A H -0.3871 0.5938 0.8278
C17A C -0.3379(11) 0.6708(12) 0.8959(8)
H11A H -0.2959 0.6239 0.9265
C18A C -0.3617(12) 0.7713(12) 0.8953(9)
H12A H -0.3369 0.8065 0.9257
C19A C -0.4505(10) 0.9508(9) 0.6059(8)
H13A H -0.4594 0.9292 0.5618
C20A C -0.4044(10) 1.0423(9) 0.5950(8)
H14A H -0.3760 1.0943 0.5443
C21A C -0.4084(10) 1.0420(9) 0.6726(9)
H15A H -0.3842 1.0964 0.6860
C22A C -0.7657(11) 0.8230(9) 0.8644(8)
H16A H -0.8175 0.7833 0.8559
C23A C -0.7988(12) 0.8860(10) 0.9174(8)
H17A H -0.8754 0.8960 0.9510
C24A C -0.7026(14) 0.9293(10) 0.9119(9)
H18A H -0.6977 0.9766 0.9402
C25A C -0.1224(8) 0.7976(9) 0.6227(7)
C26A C -0.0962(10) 0.7267(10) 0.6877(7)
H19A H -0.1061 0.6566 0.6972
C27A C -0.0553(11) 0.7633(11) 0.7375(8)
H20A H -0.0331 0.7178 0.7816
C28A C -0.0457(12) 0.8694(12) 0.7238(8)
H21A H -0.0203 0.8926 0.7609
C29A C -0.0715(10) 0.9384(10) 0.6596(8)
H22A H -0.0632 1.0086 0.6509
C30A C -0.1113(10) 0.9015(9) 0.6061(8)
C31A C -0.1708(8) 0.8750(8) 0.5106(7)
C32A C -0.2149(8) 0.8836(8) 0.4431(6)
C33A C -0.2305(9) 0.9665(8) 0.3821(7)
H23A H -0.2090 1.0321 0.3789
C34A C -0.2787(10) 0.9511(9) 0.3256(7)
H24A H -0.2905 1.0077 0.2834
C35A C -0.3105(9) 0.8565(8) 0.3282(7)
H25A H -0.3433 0.8473 0.2889
C36A C -0.2922(8) 0.7763(8) 0.3904(6)
C37A C -0.3157(9) 0.6699(8) 0.4092(7)
C38A C -0.3742(9) 0.5236(9) 0.4163(7)
C39A C -0.4223(9) 0.4403(9) 0.4086(8)
H26A H -0.4583 0.4466 0.3674
C40A C -0.4147(9) 0.3504(9) 0.4631(7)
H27A H -0.4460 0.2924 0.4593
C41A C -0.3629(8) 0.3390(8) 0.5246(7)
H28A H -0.3604 0.2743 0.5616
C42A C -0.3156(8) 0.4204(8) 0.5325(6)
H29A H -0.2794 0.4125 0.5739
C43A C -0.3219(9) 0.5131(8) 0.4790(7)
C44A C 0.0548(15) 0.6098(13) 0.0009(10)
H30A H 0.1066 0.5552 0.0075
C45A C -0.0044(17) 0.6347(14) -0.0595(11)
H31A H -0.0042 0.6003 -0.0990
C46A C -0.0662(16) 0.7274(13) -0.0449(11)
H32A H -0.1097 0.7672 -0.0781
N1A N -0.0704(8) 0.6639(6) 0.4499(5)
N2A N 0.1860(7) 0.4397(7) 0.3906(6)
N3A N 0.2889(10) 0.7598(8) 0.3049(8)
N4A N -0.3657(7) 0.6899(6) 0.6107(6)
N5A N -0.7221(8) 0.7969(7) 0.6493(7)
N6A N -0.6636(10) 0.5542(9) 0.8443(7)
N7A N 0.2170(8) 0.6242(6) 0.1797(6)
N8A N -0.0064(7) 0.5592(6) 0.2733(5)
N9A N 0.0490(7) 0.7608(6) 0.2265(5)
N10A N 0.1784(9) 0.6450(7) 0.1127(6)
N11A N -0.0237(8) 0.5826(6) 0.1967(5)
N12A N 0.0247(8) 0.7665(7) 0.1556(6)
N13A N -0.4426(9) 0.7370(8) 0.8122(6)
N14A N -0.4811(8) 0.8962(7) 0.6855(6)
N15A N -0.6555(8) 0.8263(7) 0.8291(6)
N16A N -0.4244(9) 0.8094(8) 0.8457(6)
N17A N -0.4519(8) 0.9525(8) 0.7290(7)
N18A N -0.6127(9) 0.8930(8) 0.8581(6)
N19A N -0.1602(7) 0.7837(7) 0.5588(5)
N20A N -0.2461(7) 0.7912(6) 0.4457(5)
N21A N -0.2871(7) 0.6086(6) 0.4735(5)
N22A N -0.1392(7) 0.9478(7) 0.5361(6)
H33A H -0.1372 1.0130 0.5119
N23A N -0.3667(7) 0.6224(7) 0.3738(5)
H34A H -0.3911 0.6502 0.3308
N24A N 0.0249(11) 0.6782(10) 0.0485(7)
N25A N -0.0528(13) 0.7481(11) 0.0215(8)
B1A B 0.0498(12) 0.6689(10) 0.1263(8)
B2A B -0.4842(14) 0.9117(12) 0.8267(11)
N26A N -0.4360(13) 0.9811(10) 0.8616(9)
N27A N -0.5078(17) 1.0437(17) 0.9064(13)
C48A C -0.3213(15) 1.0056(16) 0.8488(12)
H35A H -0.2543 0.9763 0.8182
C49A C -0.3211(18) 1.0807(15) 0.8887(12)
H36A H -0.2570 1.1056 0.8965
C50A C -0.445(2) 1.112(2) 0.9154(19)
H37A H -0.4733 1.1690 0.9352
O1 O 0.4685(7) 0.2736(6) 0.7391(5)
C47 C 0.415(2) 0.305(2) 0.8187(16)
C51 C 0.334(2) 0.3267(18) 0.8873(15)
C52 C 0.270(6) 0.238(4) 0.929(4)
O2 O 0.8440(7) 0.1563(6) 0.4756(6)
O3 O 0.950(8) 0.148(8) 0.581(5)
C53? C 0.302(3) 0.265(3) 0.856(3)
C54? C 0.320(4) 0.169(3) 0.905(3)
loop_
_geom_bond_atom_site_label_1
_geom_bond_atom_site_label_2
_geom_bond_site_symmetry_1
_geom_bond_site_symmetry_2
Co1 N1 1_555 1_555
Fe1 C1 1_555 1_555
Fe2 C4 1_555 1_555
C1 N1 1_555 1_555
C2 Fe1 1_555 1_555
C3 Fe1 1_555 1_555
C4 N4 1_555 1_555
C5 Fe2 1_555 1_555
C6 Fe2 1_555 1_555
C7 H1 1_555 1_555
C8 C7 1_555 1_555
H2 C8 1_555 1_555
C9 C8 1_555 1_555
H3 C9 1_555 1_555
C10 H4 1_555 1_555
C11 C10 1_555 1_555
H5 C11 1_555 1_555
C12 C11 1_555 1_555
H6 C12 1_555 1_555
C13 H7 1_555 1_555
C14 C13 1_555 1_555
H8 C14 1_555 1_555
C15 C14 1_555 1_555
H9 C15 1_555 1_555
C16 H10 1_555 1_555
C17 C16 1_555 1_555
H11 C17 1_555 1_555
C18 C17 1_555 1_555
H12 C18 1_555 1_555
C19 H13 1_555 1_555
C20 C19 1_555 1_555
H14 C20 1_555 1_555
C21 C20 1_555 1_555
H15 C21 1_555 1_555
C22 H16 1_555 1_555
C23 C22 1_555 1_555
H17 C23 1_555 1_555
C24 C23 1_555 1_555
H18 C24 1_555 1_555
C25 C26 1_555 1_555
C26 H19 1_555 1_555
C27 C26 1_555 1_555
H20 C27 1_555 1_555
C28 C27 1_555 1_555
H21 C28 1_555 1_555
C29 C28 1_555 1_555
H22 C29 1_555 1_555
C30 C25 1_555 1_555
C31 C32 1_555 1_555
C32 C33 1_555 1_555
C33 H23 1_555 1_555
C34 C33 1_555 1_555
H24 C34 1_555 1_555
C35 C34 1_555 1_555
H25 C35 1_555 1_555
C36 C35 1_555 1_555
C37 C36 1_555 1_555
C38 C39 1_555 1_555
C39 H26 1_555 1_555
C40 C39 1_555 1_555
H27 C40 1_555 1_555
C41 C40 1_555 1_555
H28 C41 1_555 1_555
C42 C41 1_555 1_555
H29 C42 1_555 1_555
C43 C38 1_555 1_555
C44 H30 1_555 1_555
C45 C44 1_555 1_555
H31 C45 1_555 1_555
C46 C45 1_555 1_555
H32 C46 1_555 1_555
N2 C2 1_555 1_555
N3 C3 1_555 1_555
N4 Co1 1_555 1_555
N5 C5 1_555 1_555
N6 C6 1_555 1_555
N7 Fe1 1_555 1_555
N8 Fe1 1_555 1_555
N9 Fe1 1_555 1_555
N10 C9 1_555 1_555
N11 C12 1_555 1_555
N12 C15 1_555 1_555
N13 Fe2 1_555 1_555
N14 Fe2 1_555 1_555
N15 Fe2 1_555 1_555
N16 C18 1_555 1_555
N17 C21 1_555 1_555
N18 C24 1_555 1_555
N19 Co1 1_555 1_555
N20 Co1 1_555 1_555
N21 Co1 1_555 1_555
N22 C30 1_555 1_555
H33 N22 1_555 1_555
N23 C37 1_555 1_555
H34 N23 1_555 1_555
N24 C44 1_555 1_555
N25 C46 1_555 1_555
B1 N10 1_555 1_555
B2 N16 1_555 1_555
O1 C47 1_555 1_555
C47 C51 1_555 1_555
N26 B2 1_555 1_555
N27 N26 1_555 1_555
C48 N26 1_555 1_555
H35 C48 1_555 1_555
C49 C48 1_555 1_555
H36 C49 1_555 1_555
C50 N27 1_555 1_555
H37 C50 1_555 1_555
C51 C52 1_555 1_555
Co1A N2 1_555 1_555
Fe1A C1A 1_555 1_555
Fe2A C4A 1_555 1_555
C1A N1A 1_555 1_555
C2A Fe1A 1_555 1_555
C3A Fe1A 1_555 1_555
C4A N4A 1_555 1_555
C5A Fe2A 1_555 1_555
C6A Fe2A 1_555 1_555
C7A H1A 1_555 1_555
C8A C7A 1_555 1_555
H2A C8A 1_555 1_555
C9A C8A 1_555 1_555
H3A C9A 1_555 1_555
C10A H4A 1_555 1_555
C11A C10A 1_555 1_555
H5A C11A 1_555 1_555
C12A C11A 1_555 1_555
H6A C12A 1_555 1_555
C13A H7A 1_555 1_555
C14A C13A 1_555 1_555
H8A C14A 1_555 1_555
C15A C14A 1_555 1_555
H9A C15A 1_555 1_555
C16A H10A 1_555 1_555
C17A C16A 1_555 1_555
H11A C17A 1_555 1_555
C18A C17A 1_555 1_555
H12A C18A 1_555 1_555
C19A H13A 1_555 1_555
C20A C19A 1_555 1_555
H14A C20A 1_555 1_555
C21A C20A 1_555 1_555
H15A C21A 1_555 1_555
C22A H16A 1_555 1_555
C23A C22A 1_555 1_555
H17A C23A 1_555 1_555
C24A C23A 1_555 1_555
H18A C24A 1_555 1_555
C25A C26A 1_555 1_555
C26A H19A 1_555 1_555
C27A C26A 1_555 1_555
H20A C27A 1_555 1_555
C28A C27A 1_555 1_555
H21A C28A 1_555 1_555
C29A C28A 1_555 1_555
H22A C29A 1_555 1_555
C30A C25A 1_555 1_555
C31A C32A 1_555 1_555
C32A C33A 1_555 1_555
C33A H23A 1_555 1_555
C34A C33A 1_555 1_555
H24A C34A 1_555 1_555
C35A C34A 1_555 1_555
H25A C35A 1_555 1_555
C36A C35A 1_555 1_555
C37A C36A 1_555 1_555
C38A C39A 1_555 1_555
C39A H26A 1_555 1_555
C40A C39A 1_555 1_555
H27A C40A 1_555 1_555
C41A C40A 1_555 1_555
H28A C41A 1_555 1_555
C42A C41A 1_555 1_555
H29A C42A 1_555 1_555
C43A C38A 1_555 1_555
C44A H30A 1_555 1_555
C45A C44A 1_555 1_555
H31A C45A 1_555 1_555
C46A C45A 1_555 1_555
H32A C46A 1_555 1_555
N1A Co1A 1_555 1_555
N2A Co1 1_555 1_555
N3A C3A 1_555 1_555
N4A Co1A 1_555 1_555
N5A C5A 1_555 1_555
N6A C6A 1_555 1_555
N7A Fe1A 1_555 1_555
N8A Fe1A 1_555 1_555
N9A Fe1A 1_555 1_555
N10A C9A 1_555 1_555
N11A C12A 1_555 1_555
N12A C15A 1_555 1_555
N13A Fe2A 1_555 1_555
N14A Fe2A 1_555 1_555
N15A Fe2A 1_555 1_555
N16A C18A 1_555 1_555
N17A C21A 1_555 1_555
N18A C24A 1_555 1_555
N19A Co1A 1_555 1_555
N20A Co1A 1_555 1_555
N21A Co1A 1_555 1_555
N22A C30A 1_555 1_555
H33A N22A 1_555 1_555
N23A C37A 1_555 1_555
H34A N23A 1_555 1_555
N24A C44A 1_555 1_555
N25A C46A 1_555 1_555
B1A N10A 1_555 1_555
B2A N16A 1_555 1_555
N26A B2A 1_555 1_555
N27A N26A 1_555 1_555
C48A N26A 1_555 1_555
H35A C48A 1_555 1_555
C49A C48A 1_555 1_555
H36A C49A 1_555 1_555
C50A N27A 1_555 1_555
H37A C50A 1_555 1_555
C7 N7 1_555 1_555
C10 N8 1_555 1_555
C13 N9 1_555 1_555
C16 N13 1_555 1_555
C19 N14 1_555 1_555
C22 N15 1_555 1_555
C25 N19 1_555 1_555
C29 C30 1_555 1_555
C31 N19 1_555 1_555
C31 N22 1_555 1_555
C32 N20 1_555 1_555
C36 N20 1_555 1_555
C37 N21 1_555 1_555
C38 N23 1_555 1_555
C42 C43 1_555 1_555
C43 N21 1_555 1_555
N7 N10 1_555 1_555
N8 N11 1_555 1_555
N9 N12 1_555 1_555
N11 B1 1_555 1_555
N12 B1 1_555 1_555
N13 N16 1_555 1_555
N14 N17 1_555 1_555
N15 N18 1_555 1_555
N17 B2 1_555 1_555
N18 B2 1_555 1_555
N24 N25 1_555 1_555
N24 B1 1_555 1_555
C49 C50 1_555 1_555
C2A N2A 1_555 1_555
C7A N7A 1_555 1_555
C10A N8A 1_555 1_555
C13A N9A 1_555 1_555
C16A N13A 1_555 1_555
C19A N14A 1_555 1_555
C22A N15A 1_555 1_555
C25A N19A 1_555 1_555
C29A C30A 1_555 1_555
C31A N19A 1_555 1_555
C31A N22A 1_555 1_555
C32A N20A 1_555 1_555
C36A N20A 1_555 1_555
C37A N21A 1_555 1_555
C38A N23A 1_555 1_555
C42A C43A 1_555 1_555
C43A N21A 1_555 1_555
N7A N10A 1_555 1_555
N8A N11A 1_555 1_555
N9A N12A 1_555 1_555
N11A B1A 1_555 1_555
N12A B1A 1_555 1_555
N13A N16A 1_555 1_555
N14A N17A 1_555 1_555
N15A N18A 1_555 1_555
N17A B2A 1_555 1_555
N18A B2A 1_555 1_555
N24A N25A 1_555 1_555
N24A B1A 1_555 1_555
C49A C50A 1_555 1_555

#END
