
#######################################################################
#
#                 Cambridge Crystallographic Data Centre
#                                CCDC 
#
#######################################################################
#
# If this CIF has been generated from an entry in the Cambridge 
# Structural Database, then it will include bibliographic, chemical, 
# crystal, experimental, refinement or atomic coordinate data resulting 
# from the CCDC's data processing and validation procedures.
#
#######################################################################

data_TISSEV
_chemical_formula_moiety         
'C76 H36 O28 W4 4-,5.5(C1 H4 O1),2.5(H2 O1),4(C19 H18 P1 1+)'
_chemical_name_systematic        
'tetrakis(Triphenyl(methyl)phosphonium) tetrakis(\m~2~-3-oxo-9-phenyl-3H-xanthene-2,6,7-triolato)-octaoxo-tetra-tungsten methanol solvate hydrate'
_symmetry_cell_setting           triclinic
_symmetry_space_group_name_H-M   'P -1'
_symmetry_Int_Tables_number      2
_space_group_name_Hall           '-P 1'
loop_
_symmetry_equiv_pos_site_id
_symmetry_equiv_pos_as_xyz
1 x,y,z
2 -x,-y,-z
_cell_length_a                   14.7679(7)
_cell_length_b                   22.1004(11)
_cell_length_c                   24.4164(11)
_cell_angle_alpha                72.927(4)
_cell_angle_beta                 82.588(4)
_cell_angle_gamma                87.114(4)
_cell_volume                     7553.45
_exptl_crystal_colour            red
_exptl_crystal_description       plate
_cell_formula_units_Z            2
loop_
_atom_site_label
_atom_site_type_symbol
_atom_site_fract_x
_atom_site_fract_y
_atom_site_fract_z
O1 O 0.4494(16) 0.1673(11) 0.8654(10)
C1 C 0.406(2) 0.1044(18) 0.8723(16)
O2 O 0.2118(18) 0.1466(13) 0.1838(12)
C2 C 0.126(3) 0.131(2) 0.1681(18)
O3 O 0.7631(17) 0.4856(12) 0.2149(11)
C3 C 0.679(3) 0.5206(19) 0.2107(17)
O4 O 0.982(2) 0.3523(15) 0.3460(14)
C4 C 1.033(3) 0.308(2) 0.400(2)
O5 O 0.0688(12) 0.5968(8) 0.2391(8)
O6 O 0.0073(19) 0.4739(13) 0.2647(12)
C5 C 0.005(3) 0.466(2) 0.2134(19)
O7 O 0.222(2) 0.3451(16) 0.2777(14)
C6 C 0.283(3) 0.301(2) 0.279(2)
O8 O 0.876(3) 0.943(2) 0.5332(19)
C7 C 0.951(4) 0.983(3) 0.530(3)
O9 O 0.889(2) 0.1576(17) 0.4800(16)
C8 C 0.833(4) 0.116(3) 0.529(3)
O10 O 0.3815(16) 0.2486(11) 0.7699(10)
O11 O 0.209(2) 0.1935(17) 0.2764(16)
O12 O 0.794(3) 0.3305(19) 0.2103(18)
O14 O 0.771(4) 0.904(3) 0.627(2)
C10 C 0.700(6) 0.947(4) 0.646(4)
C11 C 0.2718(6) 0.8247(4) 0.0406(5)
C12 C 0.3035(5) 0.7670(5) 0.0333(5)
H1 H 0.3670 0.7604 0.0240
C13 C 0.2423(7) 0.7190(4) 0.0394(5)
C14 C 0.1495(6) 0.7287(4) 0.0529(5)
C15 C 0.1177(5) 0.7864(5) 0.0603(5)
H2 H 0.0542 0.7931 0.0695
C16 C 0.1789(7) 0.8344(4) 0.0541(5)
C17 C 0.1505(11) 0.8947(8) 0.0623(8)
C18 C 0.2177(6) 0.9431(4) 0.0505(5)
C19 C 0.1970(6) 1.0041(5) 0.0539(5)
H3 H 0.1359 1.0153 0.0649
C20 C 0.2657(7) 1.0485(4) 0.0414(5)
C21 C 0.3552(6) 1.0320(5) 0.0254(5)
C22 C 0.3759(5) 0.9711(5) 0.0219(5)
H4 H 0.4370 0.9598 0.0110
C23 C 0.3071(7) 0.9266(4) 0.0345(5)
C24 C 0.0547(13) 0.9054(8) 0.0854(8)
C25 C -0.0181(13) 0.9195(10) 0.0526(9)
H5 H -0.0073 0.9230 0.0126
C26 C -0.1069(15) 0.9286(12) 0.0771(10)
H6 H -0.1553 0.9403 0.0538
C27 C -0.1227(15) 0.9204(10) 0.1355(9)
H7 H -0.1831 0.9253 0.1527
C28 C -0.0530(18) 0.9053(15) 0.1694(11)
H8 H -0.0649 0.8986 0.2099
C29 C 0.0384(17) 0.8997(14) 0.1427(10)
H9 H 0.0878 0.8919 0.1653
C30 C 0.5778(15) 1.0416(9) 0.1897(8)
C31 C 0.4880(16) 1.0430(10) 0.1817(9)
H10 H 0.4461 1.0145 0.2085
C32 C 0.4589(14) 1.0874(9) 0.1329(9)
C33 C 0.5265(14) 1.1297(8) 0.0943(8)
C34 C 0.6143(13) 1.1293(8) 0.1038(8)
H11 H 0.6555 1.1593 0.0781
C35 C 0.6456(14) 1.0832(8) 0.1529(8)
C36 C 0.7341(15) 1.0808(9) 0.1656(8)
C37 C 0.7572(15) 1.0309(9) 0.2158(9)
C38 C 0.8462(16) 1.0230(10) 0.2340(9)
H12 H 0.8937 1.0512 0.2133
C39 C 0.8629(16) 0.9725(10) 0.2834(10)
C40 C 0.7904(17) 0.9305(10) 0.3142(10)
C41 C 0.7033(15) 0.9384(9) 0.2982(8)
H13 H 0.6551 0.9111 0.3194
C42 C 0.6895(17) 0.9877(11) 0.2501(10)
C43 C 0.8050(13) 1.1259(8) 0.1321(8)
C44 C 0.7917(16) 1.1911(9) 0.1276(9)
H14 H 0.7375 1.2056 0.1456
C45 C 0.8592(15) 1.2335(9) 0.0965(10)
H15 H 0.8478 1.2774 0.0913
C46 C 0.9415(17) 1.2152(11) 0.0727(10)
H16 H 0.9886 1.2448 0.0551
C47 C 0.9534(17) 1.1510(11) 0.0755(9)
H17 H 1.0074 1.1372 0.0568
C48 C 0.8856(14) 1.1071(10) 0.1061(8)
H18 H 0.8956 1.0635 0.1089
C49 C 0.8980(13) 0.6668(9) 0.3573(8)
C50 C 0.9242(14) 0.7254(10) 0.3216(9)
H19 H 0.9321 0.7341 0.2808
C51 C 0.9390(15) 0.7724(10) 0.3484(10)
C52 C 0.9254(15) 0.7604(10) 0.4098(9)
C53 C 0.9033(14) 0.7002(10) 0.4441(9)
H20 H 0.8982 0.6913 0.4849
C54 C 0.8882(13) 0.6517(9) 0.4201(8)
C55 C 0.8597(12) 0.5908(9) 0.4521(8)
C56 C 0.8386(13) 0.5465(9) 0.4246(7)
C57 C 0.8061(12) 0.4846(10) 0.4553(8)
H21 H 0.8002 0.4708 0.4963
C58 C 0.7841(12) 0.4465(9) 0.4261(8)
C59 C 0.7937(14) 0.4659(11) 0.3616(9)
C60 C 0.8271(12) 0.5270(9) 0.3320(8)
H22 H 0.8350 0.5412 0.2910
C61 C 0.8477(12) 0.5650(10) 0.3630(8)
C62 C 0.8558(13) 0.5706(9) 0.5168(8)
C63 C 0.9343(15) 0.5516(11) 0.5415(10)
H23 H 0.9912 0.5517 0.5184
C64 C 0.9283(17) 0.5311(11) 0.6039(9)
H24 H 0.9833 0.5209 0.6211
C65 C 0.8495(15) 0.5259(10) 0.6383(10)
H25 H 0.8459 0.5067 0.6788
C66 C 0.7690(19) 0.5517(16) 0.6097(10)
H26 H 0.7133 0.5566 0.6324
C67 C 0.7725(16) 0.5690(15) 0.5510(11)
H27 H 0.7178 0.5800 0.5334
C68 C 0.4510(13) 0.4441(9) 0.2800(8)
C69 C 0.4855(13) 0.4454(9) 0.3304(8)
H28 H 0.4611 0.4736 0.3515
C70 C 0.5567(13) 0.4040(10) 0.3485(8)
C71 C 0.5928(11) 0.3618(8) 0.3156(7)
C72 C 0.5598(13) 0.3606(10) 0.2664(9)
H29 H 0.5836 0.3314 0.2462
C73 C 0.4883(11) 0.4043(10) 0.2456(8)
C74 C 0.4520(13) 0.4107(8) 0.1939(8)
C75 C 0.3816(11) 0.4538(8) 0.1774(8)
C76 C 0.3443(12) 0.4680(8) 0.1237(8)
H30 H 0.3673 0.4453 0.0971
C77 C 0.2766(12) 0.5131(8) 0.1087(9)
C78 C 0.2405(13) 0.5470(9) 0.1519(9)
C79 C 0.2754(12) 0.5344(9) 0.2038(8)
H31 H 0.2516 0.5554 0.2314
C80 C 0.3464(13) 0.4903(9) 0.2149(8)
C81 C 0.4897(12) 0.3720(8) 0.1556(8)
C82 C 0.5809(13) 0.3784(8) 0.1320(8)
H32 H 0.6186 0.4073 0.1404
C83 C 0.6165(16) 0.3420(9) 0.0961(8)
H33 H 0.6786 0.3462 0.0797
C84 C 0.5612(16) 0.2998(10) 0.0842(8)
H34 H 0.5861 0.2748 0.0600
C85 C 0.4709(17) 0.2934(10) 0.1070(9)
H35 H 0.4337 0.2643 0.0985
C86 C 0.4340(14) 0.3298(9) 0.1425(8)
H36 H 0.3714 0.3261 0.1579
O15 O 0.1629(9) 0.6100(7) -0.0281(6)
O16 O 0.0491(8) 0.5599(6) 0.0700(8)
O17 O 0.2666(8) 0.6623(5) 0.0342(5)
O18 O 0.0950(8) 0.6825(5) 0.0541(6)
O19 O 0.4163(9) 1.0759(5) 0.0143(6)
O20 O 0.2526(10) 1.1086(6) 0.0441(6)
O21 O 0.3337(7) 0.8694(5) 0.0308(5)
O22 O 0.3013(10) 1.2124(6) 0.0675(7)
O23 O 0.3816(11) 1.2033(7) -0.0379(7)
O24 O 0.3781(9) 1.0946(6) 0.1202(6)
O25 O 0.4910(9) 1.1709(5) 0.0483(5)
O26 O 0.9430(11) 0.9621(7) 0.3011(7)
O27 O 0.8162(11) 0.8878(7) 0.3585(7)
O28 O 0.6028(10) 0.9953(6) 0.2366(6)
O29 O 0.9225(16) 0.9313(8) 0.4272(8)
O30 O 1.0748(7) 0.9000(8) 0.3647(7)
O31 O 0.9646(11) 0.8308(7) 0.3196(6)
O32 O 0.9350(12) 0.8082(7) 0.4301(6)
O33 O 0.7700(10) 0.4233(7) 0.3402(6)
O34 O 0.7496(9) 0.3886(7) 0.4514(6)
O35 O 0.8782(9) 0.6235(7) 0.3322(5)
O36 O 0.8120(8) 0.2969(7) 0.3905(7)
O37 O 0.6555(10) 0.2834(6) 0.4635(5)
O38 O 0.5966(8) 0.3995(6) 0.3945(5)
O39 O 0.6614(9) 0.3232(6) 0.3379(6)
O40 O 0.1772(8) 0.5890(6) 0.1341(5)
O41 O 0.2433(8) 0.5319(5) 0.0600(5)
O42 O 0.3815(9) 0.4847(6) 0.2650(6)
W1 W 0.15067(6) 0.60111(4) 0.04572(4)
W2 W 0.36363(7) 1.16039(4) 0.03499(4)
W3 W 0.95706(10) 0.89355(5) 0.37438(5)
W4 W 0.71242(7) 0.33708(5) 0.40439(4)
P1 P 0.1880(3) 0.4046(2) 0.9655(2)
C87 C 0.1453(14) 0.4810(10) 0.9308(9)
H37 H 0.1635 0.5115 0.9493
H38 H 0.0785 0.4800 0.9341
H39 H 0.1703 0.4936 0.8900
C88 C 0.3100(12) 0.4049(8) 0.9598(7)
C89 C 0.3622(13) 0.3509(9) 0.9585(8)
H40 H 0.3332 0.3136 0.9582
C90 C 0.4552(14) 0.3516(10) 0.9575(8)
H41 H 0.4899 0.3142 0.9574
C91 C 0.5006(15) 0.4069(10) 0.9564(9)
H42 H 0.5652 0.4072 0.9551
C92 C 0.4467(14) 0.4624(10) 0.9575(9)
H43 H 0.4754 0.5002 0.9568
C93 C 0.3535(13) 0.4608(9) 0.9594(8)
H44 H 0.3178 0.4975 0.9606
C94 C 0.1428(13) 0.3808(9) 1.0415(8)
C95 C 0.1984(17) 0.3453(11) 1.0800(10)
H45 H 0.2601 0.3371 1.0673
C96 C 0.162(2) 0.3202(14) 1.1405(13)
H46 H 0.1988 0.2955 1.1686
C97 C 0.067(2) 0.3353(14) 1.1552(14)
H47 H 0.0402 0.3202 1.1940
C98 C 0.014(2) 0.3723(13) 1.1126(12)
H48 H -0.0475 0.3821 1.1234
C99 C 0.0524(16) 0.3946(11) 1.0552(10)
H49 H 0.0168 0.4186 1.0263
C100 C 0.1560(12) 0.3479(8) 0.9328(8)
C101 C 0.1264(15) 0.3692(11) 0.8773(9)
H50 H 0.1223 0.4131 0.8579
C102 C 0.1032(15) 0.3234(11) 0.8517(10)
H51 H 0.0808 0.3365 0.8152
C103 C 0.1128(17) 0.2593(12) 0.8793(11)
H52 H 0.1008 0.2292 0.8605
C104 C 0.1406(13) 0.2382(10) 0.9360(9)
H53 H 0.1450 0.1943 0.9558
C105 C 0.1610(13) 0.2844(9) 0.9614(8)
H54 H 0.1788 0.2715 0.9992
P2 P 0.2149(6) 0.7508(4) 0.2539(3)
C106 C 0.1164(18) 0.7440(13) 0.2179(12)
H55 H 0.0652 0.7690 0.2299
H56 H 0.0988 0.6995 0.2284
H57 H 0.1323 0.7598 0.1760
C107 C 0.1825(16) 0.7191(11) 0.3281(10)
C108 C 0.1435(15) 0.6596(11) 0.3492(10)
H58 H 0.1321 0.6368 0.3234
C109 C 0.1208(15) 0.6332(11) 0.4093(10)
H59 H 0.0952 0.5921 0.4237
C110 C 0.1352(15) 0.6661(11) 0.4476(10)
H60 H 0.1161 0.6488 0.4876
C111 C 0.1783(17) 0.7253(12) 0.4270(11)
H61 H 0.1900 0.7473 0.4533
C112 C 0.2036(17) 0.7516(12) 0.3680(11)
H62 H 0.2346 0.7907 0.3541
C113 C 0.3053(14) 0.7085(11) 0.2346(11)
C114 C 0.3120(15) 0.6987(11) 0.1806(10)
H63 H 0.2656 0.7146 0.1562
C115 C 0.3865(17) 0.6657(12) 0.1620(8)
H64 H 0.3910 0.6590 0.1251
C116 C 0.4543(14) 0.6425(11) 0.1976(11)
H65 H 0.5052 0.6199 0.1850
C117 C 0.4476(15) 0.6523(11) 0.2517(10)
H66 H 0.4940 0.6364 0.2760
C118 C 0.3731(18) 0.6853(12) 0.2702(8)
H67 H 0.3685 0.6920 0.3072
C119 C 0.2403(13) 0.8338(7) 0.2348(8)
C120 C 0.3136(12) 0.8585(8) 0.1938(8)
H68 H 0.3548 0.8310 0.1792
C121 C 0.3265(11) 0.9236(9) 0.1741(8)
H69 H 0.3766 0.9405 0.1461
C122 C 0.2662(14) 0.9639(7) 0.1954(9)
H70 H 0.2750 1.0084 0.1820
C123 C 0.1928(13) 0.9392(8) 0.2364(9)
H71 H 0.1516 0.9667 0.2510
C124 C 0.1799(11) 0.8741(9) 0.2561(8)
H72 H 0.1298 0.8572 0.2842
P3 P 0.4107(4) 0.2646(3) 0.5941(3)
C125 C 0.3126(19) 0.2507(14) 0.6471(13)
H73 H 0.2878 0.2090 0.6514
H74 H 0.2661 0.2835 0.6347
H75 H 0.3301 0.2520 0.6841
C126 C 0.4596(18) 0.3395(13) 0.5837(11)
C127 C 0.5534(19) 0.3519(13) 0.5640(12)
H76 H 0.5919 0.3192 0.5558
C128 C 0.589(2) 0.4092(14) 0.5567(12)
H77 H 0.6532 0.4155 0.5461
C129 C 0.5307(19) 0.4609(14) 0.5651(12)
H78 H 0.5542 0.5022 0.5568
C130 C 0.439(2) 0.4488(15) 0.5854(13)
H79 H 0.4014 0.4820 0.5936
C131 C 0.400(2) 0.3890(13) 0.5943(12)
H80 H 0.3368 0.3820 0.6069
C132 C 0.3746(16) 0.2616(11) 0.5280(10)
C133 C 0.2997(18) 0.2241(13) 0.5317(12)
H81 H 0.2723 0.1990 0.5681
C134 C 0.264(2) 0.2241(14) 0.4779(13)
H82 H 0.2094 0.2019 0.4795
C135 C 0.3090(17) 0.2563(12) 0.4262(11)
H83 H 0.2864 0.2557 0.3916
C136 C 0.3867(19) 0.2896(13) 0.4227(13)
H84 H 0.4189 0.3093 0.3859
C137 C 0.421(2) 0.2953(14) 0.4748(12)
H85 H 0.4717 0.3208 0.4726
C138 C 0.4979(14) 0.2038(10) 0.6194(9)
C139 C 0.5647(16) 0.1910(12) 0.5795(11)
H86 H 0.5653 0.2117 0.5395
C140 C 0.634(2) 0.1446(15) 0.6012(14)
H87 H 0.6845 0.1350 0.5764
C141 C 0.6230(19) 0.1144(14) 0.6615(12)
H88 H 0.6660 0.0824 0.6767
C142 C 0.5577(19) 0.1278(13) 0.6969(13)
H89 H 0.5544 0.1049 0.7366
C143 C 0.4917(19) 0.1746(13) 0.6789(12)
H90 H 0.4457 0.1859 0.7053
P4 P 0.6697(8) 0.1173(4) 0.3875(4)
C144 C 0.658(3) 0.1530(13) 0.4474(13)
H91 H 0.6985 0.1310 0.4758
H92 H 0.5944 0.1492 0.4657
H93 H 0.6739 0.1979 0.4324
C145 C 0.7877(13) 0.1264(13) 0.3566(10)
C146 C 0.8508(18) 0.0766(9) 0.3638(10)
H94 H 0.8319 0.0348 0.3846
C147 C 0.9414(16) 0.0881(12) 0.3406(12)
H95 H 0.9845 0.0541 0.3455
C148 C 0.9690(14) 0.1492(15) 0.3101(12)
H96 H 1.0309 0.1570 0.2942
C149 C 0.906(2) 0.1990(10) 0.3030(11)
H97 H 0.9247 0.2407 0.2822
C150 C 0.8153(18) 0.1875(11) 0.3262(12)
H98 H 0.7721 0.2215 0.3213
C151 C 0.599(2) 0.1540(14) 0.3343(13)
C152 C 0.6194(16) 0.1564(13) 0.2765(14)
H99 H 0.6768 0.1409 0.2633
C153 C 0.556(2) 0.1814(14) 0.2380(10)
H100 H 0.5702 0.1831 0.1985
C154 C 0.4723(19) 0.2040(13) 0.2573(13)
H101 H 0.4290 0.2211 0.2310
C155 C 0.4516(17) 0.2016(14) 0.3151(14)
H102 H 0.3943 0.2171 0.3282
C156 C 0.515(2) 0.1766(15) 0.3535(10)
H103 H 0.5008 0.1749 0.3930
C157 C 0.6435(16) 0.0360(9) 0.4202(11)
C158 C 0.5801(16) 0.0098(11) 0.3966(9)
H104 H 0.5552 0.0345 0.3630
C159 C 0.5531(16) -0.0525(12) 0.4224(12)
H105 H 0.5098 -0.0704 0.4063
C160 C 0.5895(19) -0.0886(9) 0.4716(12)
H106 H 0.5711 -0.1311 0.4892
C161 C 0.6530(19) -0.0623(13) 0.4951(10)
H107 H 0.6779 -0.0870 0.5288
C162 C 0.6800(16) 0.0000(14) 0.4694(11)
H108 H 0.7233 0.0179 0.4855
loop_
_geom_bond_atom_site_label_1
_geom_bond_atom_site_label_2
_geom_bond_site_symmetry_1
_geom_bond_site_symmetry_2
O1 C1 1_555 1_555
O2 C2 1_555 1_555
O3 C3 1_555 1_555
O4 C4 1_555 1_555
O6 C5 1_555 1_555
O7 C6 1_555 1_555
O8 C7 1_555 1_555
O9 C8 1_555 1_555
O14 C10 1_555 1_555
C11 C12 1_555 1_555
C12 H1 1_555 1_555
C13 C12 1_555 1_555
C14 C13 1_555 1_555
C15 C14 1_555 1_555
H2 C15 1_555 1_555
C16 C11 1_555 1_555
C17 C16 1_555 1_555
C18 C17 1_555 1_555
C19 C18 1_555 1_555
H3 C19 1_555 1_555
C20 C19 1_555 1_555
C21 C20 1_555 1_555
C22 C21 1_555 1_555
H4 C22 1_555 1_555
C23 C18 1_555 1_555
C24 C17 1_555 1_555
C25 C24 1_555 1_555
H5 C25 1_555 1_555
C26 C25 1_555 1_555
H6 C26 1_555 1_555
C27 C26 1_555 1_555
H7 C27 1_555 1_555
C28 C27 1_555 1_555
H8 C28 1_555 1_555
C29 C24 1_555 1_555
H9 C29 1_555 1_555
C30 C31 1_555 1_555
C31 H10 1_555 1_555
C32 C31 1_555 1_555
C33 C32 1_555 1_555
C34 C33 1_555 1_555
H11 C34 1_555 1_555
C35 C30 1_555 1_555
C36 C35 1_555 1_555
C37 C36 1_555 1_555
C38 C37 1_555 1_555
H12 C38 1_555 1_555
C39 C38 1_555 1_555
C40 C39 1_555 1_555
C41 C40 1_555 1_555
H13 C41 1_555 1_555
C42 C37 1_555 1_555
C43 C36 1_555 1_555
C44 C43 1_555 1_555
H14 C44 1_555 1_555
C45 C44 1_555 1_555
H15 C45 1_555 1_555
C46 C45 1_555 1_555
H16 C46 1_555 1_555
C47 C46 1_555 1_555
H17 C47 1_555 1_555
C48 C43 1_555 1_555
H18 C48 1_555 1_555
C49 C50 1_555 1_555
C50 H19 1_555 1_555
C51 C50 1_555 1_555
C52 C51 1_555 1_555
C53 C52 1_555 1_555
H20 C53 1_555 1_555
C54 C49 1_555 1_555
C55 C54 1_555 1_555
C56 C55 1_555 1_555
C57 C56 1_555 1_555
H21 C57 1_555 1_555
C58 C57 1_555 1_555
C59 C58 1_555 1_555
C60 C59 1_555 1_555
H22 C60 1_555 1_555
C61 C56 1_555 1_555
C62 C55 1_555 1_555
C63 C62 1_555 1_555
H23 C63 1_555 1_555
C64 C63 1_555 1_555
H24 C64 1_555 1_555
C65 C64 1_555 1_555
H25 C65 1_555 1_555
C66 C65 1_555 1_555
H26 C66 1_555 1_555
C67 C62 1_555 1_555
H27 C67 1_555 1_555
C68 C69 1_555 1_555
C69 H28 1_555 1_555
C70 C69 1_555 1_555
C71 C70 1_555 1_555
C72 C71 1_555 1_555
H29 C72 1_555 1_555
C73 C68 1_555 1_555
C74 C73 1_555 1_555
C75 C74 1_555 1_555
C76 C75 1_555 1_555
H30 C76 1_555 1_555
C77 C76 1_555 1_555
C78 C77 1_555 1_555
C79 C78 1_555 1_555
H31 C79 1_555 1_555
C80 C75 1_555 1_555
C81 C74 1_555 1_555
C82 C81 1_555 1_555
H32 C82 1_555 1_555
C83 C82 1_555 1_555
H33 C83 1_555 1_555
C84 C83 1_555 1_555
H34 C84 1_555 1_555
C85 C84 1_555 1_555
H35 C85 1_555 1_555
C86 C81 1_555 1_555
H36 C86 1_555 1_555
O15 W1 1_555 1_555
O16 W1 1_555 1_555
O17 C13 1_555 1_555
O18 C14 1_555 1_555
O19 C21 1_555 1_555
O20 C20 1_555 1_555
O21 C11 1_555 1_555
O22 W2 1_555 1_555
O23 W2 1_555 1_555
O24 C32 1_555 1_555
O25 C33 1_555 1_555
O26 C39 1_555 1_555
O27 C40 1_555 1_555
O28 C30 1_555 1_555
O29 W3 1_555 1_555
O30 W3 1_555 1_555
O31 C51 1_555 1_555
O32 C52 1_555 1_555
O33 C59 1_555 1_555
O34 C58 1_555 1_555
O35 C49 1_555 1_555
O36 W4 1_555 1_555
O37 W4 1_555 1_555
O38 C70 1_555 1_555
O39 C71 1_555 1_555
O40 C78 1_555 1_555
O41 C77 1_555 1_555
O42 C68 1_555 1_555
W1 O17 1_555 1_555
W2 O19 1_555 1_555
W3 O26 1_555 1_555
W4 O33 1_555 1_555
P1 C87 1_555 1_555
C87 H37 1_555 1_555
H38 C87 1_555 1_555
H39 C87 1_555 1_555
C88 P1 1_555 1_555
C89 C88 1_555 1_555
H40 C89 1_555 1_555
C90 C89 1_555 1_555
H41 C90 1_555 1_555
C91 C90 1_555 1_555
H42 C91 1_555 1_555
C92 C91 1_555 1_555
H43 C92 1_555 1_555
C93 C88 1_555 1_555
H44 C93 1_555 1_555
C94 P1 1_555 1_555
C95 C94 1_555 1_555
H45 C95 1_555 1_555
C96 C95 1_555 1_555
H46 C96 1_555 1_555
C97 C96 1_555 1_555
H47 C97 1_555 1_555
C98 C97 1_555 1_555
H48 C98 1_555 1_555
C99 C94 1_555 1_555
H49 C99 1_555 1_555
C100 P1 1_555 1_555
C101 C100 1_555 1_555
H50 C101 1_555 1_555
C102 C101 1_555 1_555
H51 C102 1_555 1_555
C103 C102 1_555 1_555
H52 C103 1_555 1_555
C104 C103 1_555 1_555
H53 C104 1_555 1_555
C105 C100 1_555 1_555
H54 C105 1_555 1_555
P2 C106 1_555 1_555
C106 H55 1_555 1_555
H56 C106 1_555 1_555
H57 C106 1_555 1_555
C107 P2 1_555 1_555
C108 C107 1_555 1_555
H58 C108 1_555 1_555
C109 C108 1_555 1_555
H59 C109 1_555 1_555
C110 C109 1_555 1_555
H60 C110 1_555 1_555
C111 C110 1_555 1_555
H61 C111 1_555 1_555
C112 C107 1_555 1_555
H62 C112 1_555 1_555
C113 P2 1_555 1_555
C114 C113 1_555 1_555
H63 C114 1_555 1_555
C115 C114 1_555 1_555
H64 C115 1_555 1_555
C116 C115 1_555 1_555
H65 C116 1_555 1_555
C117 C116 1_555 1_555
H66 C117 1_555 1_555
C118 C113 1_555 1_555
H67 C118 1_555 1_555
C119 P2 1_555 1_555
C120 C119 1_555 1_555
H68 C120 1_555 1_555
C121 C120 1_555 1_555
H69 C121 1_555 1_555
C122 C121 1_555 1_555
H70 C122 1_555 1_555
C123 C122 1_555 1_555
H71 C123 1_555 1_555
C124 C119 1_555 1_555
H72 C124 1_555 1_555
P3 C125 1_555 1_555
C125 H73 1_555 1_555
H74 C125 1_555 1_555
H75 C125 1_555 1_555
C126 P3 1_555 1_555
C127 C126 1_555 1_555
H76 C127 1_555 1_555
C128 C127 1_555 1_555
H77 C128 1_555 1_555
C129 C128 1_555 1_555
H78 C129 1_555 1_555
C130 C129 1_555 1_555
H79 C130 1_555 1_555
C131 C126 1_555 1_555
H80 C131 1_555 1_555
C132 P3 1_555 1_555
C133 C132 1_555 1_555
H81 C133 1_555 1_555
C134 C133 1_555 1_555
H82 C134 1_555 1_555
C135 C134 1_555 1_555
H83 C135 1_555 1_555
C136 C135 1_555 1_555
H84 C136 1_555 1_555
C137 C132 1_555 1_555
H85 C137 1_555 1_555
C138 P3 1_555 1_555
C139 C138 1_555 1_555
H86 C139 1_555 1_555
C140 C139 1_555 1_555
H87 C140 1_555 1_555
C141 C140 1_555 1_555
H88 C141 1_555 1_555
C142 C141 1_555 1_555
H89 C142 1_555 1_555
C143 C138 1_555 1_555
H90 C143 1_555 1_555
P4 C144 1_555 1_555
C144 H91 1_555 1_555
H92 C144 1_555 1_555
H93 C144 1_555 1_555
C145 P4 1_555 1_555
C146 C145 1_555 1_555
H94 C146 1_555 1_555
C147 C146 1_555 1_555
H95 C147 1_555 1_555
C148 C147 1_555 1_555
H96 C148 1_555 1_555
C149 C148 1_555 1_555
H97 C149 1_555 1_555
C150 C145 1_555 1_555
H98 C150 1_555 1_555
C151 P4 1_555 1_555
C152 C151 1_555 1_555
H99 C152 1_555 1_555
C153 C152 1_555 1_555
H100 C153 1_555 1_555
C154 C153 1_555 1_555
H101 C154 1_555 1_555
C155 C154 1_555 1_555
H102 C155 1_555 1_555
C156 C151 1_555 1_555
H103 C156 1_555 1_555
C157 P4 1_555 1_555
C158 C157 1_555 1_555
H104 C158 1_555 1_555
C159 C158 1_555 1_555
H105 C159 1_555 1_555
C160 C159 1_555 1_555
H106 C160 1_555 1_555
C161 C160 1_555 1_555
H107 C161 1_555 1_555
C162 C157 1_555 1_555
H108 C162 1_555 1_555
C15 C16 1_555 1_555
C22 C23 1_555 1_555
C23 O21 1_555 1_555
C28 C29 1_555 1_555
C34 C35 1_555 1_555
C41 C42 1_555 1_555
C42 O28 1_555 1_555
C47 C48 1_555 1_555
C53 C54 1_555 1_555
C60 C61 1_555 1_555
C61 O35 1_555 1_555
C66 C67 1_555 1_555
C72 C73 1_555 1_555
C79 C80 1_555 1_555
C80 O42 1_555 1_555
C85 C86 1_555 1_555
O18 W1 1_555 1_555
O20 W2 1_555 1_555
O24 W2 1_555 1_555
O25 W2 1_555 1_555
O27 W3 1_555 1_555
O31 W3 1_555 1_555
O32 W3 1_555 1_555
O34 W4 1_555 1_555
O38 W4 1_555 1_555
O39 W4 1_555 1_555
O40 W1 1_555 1_555
O41 W1 1_555 1_555
C92 C93 1_555 1_555
C98 C99 1_555 1_555
C104 C105 1_555 1_555
C111 C112 1_555 1_555
C117 C118 1_555 1_555
C123 C124 1_555 1_555
C130 C131 1_555 1_555
C136 C137 1_555 1_555
C142 C143 1_555 1_555
C149 C150 1_555 1_555
C155 C156 1_555 1_555
C161 C162 1_555 1_555

#END
