
#######################################################################
#
#                 Cambridge Crystallographic Data Centre
#                                CCDC 
#
#######################################################################
#
# If this CIF has been generated from an entry in the Cambridge 
# Structural Database, then it will include bibliographic, chemical, 
# crystal, experimental, refinement or atomic coordinate data resulting 
# from the CCDC's data processing and validation procedures.
#
#######################################################################

data_TIXFIP
_chemical_formula_moiety         
'C84 H96 N36 Pd6 12+,4(C11 H15 O2 1-),8(N1 O3 1-)'
_chemical_name_systematic        
'tetrakis(\m~3~-2,4,6-tris(4-Pyridyl)-1,3,5-triazine)-hexakis(ethylenediamine)-hexa-palladium tetrakis(adamantyl carboxylate) clathrate octanitrate'
_symmetry_cell_setting           tetragonal
_symmetry_space_group_name_H-M   'I 41/a m d'
_symmetry_Int_Tables_number      141
_space_group_name_Hall           '-I 4bd 2'
loop_
_symmetry_equiv_pos_site_id
_symmetry_equiv_pos_as_xyz
1 x,y,z
2 1/4-y,3/4+x,1/4+z
3 x,-y,-z
4 1/2-x,-y,1/2+z
5 1/4+y,3/4+x,1/4-z
6 1/4+y,1/4-x,3/4+z
7 1/2-x,y,1/2-z
8 1/4-y,1/4-x,3/4-z
9 1/2+x,1/2+y,1/2+z
10 3/4-y,1/4+x,3/4+z
11 1/2+x,1/2-y,1/2-z
12 -x,1/2-y,z
13 3/4+y,1/4+x,3/4-z
14 3/4+y,3/4-x,1/4+z
15 -x,1/2+y,-z
16 3/4-y,3/4-x,1/4-z
17 -x,-y,-z
18 3/4+y,1/4-x,3/4-z
19 -x,y,z
20 1/2+x,y,1/2-z
21 3/4-y,1/4-x,3/4+z
22 3/4-y,3/4+x,1/4-z
23 1/2+x,-y,1/2+z
24 3/4+y,3/4+x,1/4+z
25 1/2-x,1/2-y,1/2-z
26 1/4+y,3/4-x,1/4-z
27 1/2-x,1/2+y,1/2+z
28 x,1/2+y,-z
29 1/4-y,3/4-x,1/4+z
30 1/4-y,1/4+x,3/4-z
31 x,1/2-y,z
32 1/4+y,1/4+x,3/4+z
_cell_length_a                   26.919(3)
_cell_length_b                   26.919(3)
_cell_length_c                   27.383(6)
_cell_angle_alpha                90
_cell_angle_beta                 90
_cell_angle_gamma                90
_cell_volume                     19842.6
_exptl_crystal_colour            yellow
_cell_formula_units_Z            4
loop_
_atom_site_label
_atom_site_type_symbol
_atom_site_fract_x
_atom_site_fract_y
_atom_site_fract_z
O1 O 0.041(1) 0.023(3) 0.194(2)
C13 C 0.045(2) 0.168(3) 0.295(3)
C14 C 0.046(2) 0.119(3) 0.323(3)
C15 C 0.0000 0.107(4) 0.347(4)
C16 C 0.043(2) 0.076(2) 0.288(2)
C17 C 0.0000 0.074(4) 0.247(4)
C18 C 0.0000 0.117(5) 0.230(4)
C19 C 0.0000 0.163(6) 0.251(9)
C20 C 0.0000 0.034(5) 0.206(5)
O1R O -0.041(1) 0.023(3) 0.194(2)
C13R C -0.045(2) 0.168(3) 0.295(3)
C14R C -0.046(2) 0.119(3) 0.323(3)
C16R C -0.043(2) 0.076(2) 0.288(2)
Pd1 Pd 0.2433(1) 0.4933 0.3750
Pd2 Pd 0.0000 0.2500 0.0397(3)
N1 N 0.230(1) 0.428(1) 0.336(2)
N2 N 0.208(2) 0.2500 0.296(2)
N3 N 0.054(2) 0.2500 0.092(2)
N4 N 0.308(1) 0.511(1) 0.337(2)
N5 N -0.053(2) 0.2500 -0.018(2)
N6 N 0.165(1) 0.295(1) 0.232(2)
C1 C 0.248(1) 0.387(2) 0.356(2)
C2 C 0.237(2) 0.337(1) 0.335(2)
C3 C 0.206(1) 0.338(2) 0.295(2)
C4 C 0.189(1) 0.385(2) 0.275(2)
C5 C 0.201(2) 0.429(1) 0.299(2)
C6 C 0.193(2) 0.291(2) 0.272(2)
C7 C 0.150(2) 0.2500 0.210(2)
C8 C 0.118(2) 0.2500 0.167(3)
C9 C 0.103(2) 0.202(2) 0.151(2)
C10 C 0.073(2) 0.204(2) 0.116(2)
C11 C 0.340(2) 0.548(2) 0.364(3)
C12 C -0.025(3) 0.2500 -0.067(4)
C6DA C 0.193(2) 0.209(2) 0.272(2)
N6DA N 0.165(1) 0.205(1) 0.232(2)
N3K N -0.054(2) 0.2500 0.092(2)
C10K C -0.073(2) 0.296(2) 0.116(2)
C9K C -0.103(2) 0.298(2) 0.151(2)
C8K C -0.118(2) 0.2500 0.167(3)
C7K C -0.150(2) 0.2500 0.210(2)
N6K N -0.165(1) 0.205(1) 0.232(2)
C6K C -0.193(2) 0.209(2) 0.272(2)
N2K N -0.208(2) 0.2500 0.296(2)
C6R C -0.193(2) 0.291(2) 0.272(2)
N6R N -0.165(1) 0.295(1) 0.232(2)
C3R C -0.206(1) 0.338(2) 0.295(2)
C2R C -0.237(2) 0.337(1) 0.335(2)
C1R C -0.248(1) 0.387(2) 0.356(2)
N1R N -0.230(1) 0.428(1) 0.336(2)
Pd1R Pd -0.2433(1) 0.4933 0.3750
N1CA N -0.178(1) 0.480(1) 0.414(2)
C1CA C -0.137(2) 0.498(1) 0.394(2)
C2CA C -0.087(1) 0.487(2) 0.415(2)
C3CA C -0.088(2) 0.456(1) 0.455(2)
C4CA C -0.135(2) 0.439(1) 0.475(2)
C5CA C -0.179(1) 0.451(2) 0.451(2)
C6CA C -0.041(2) 0.443(2) 0.478(2)
N2CA N 0.0000 0.458(2) 0.454(2)
C6L C 0.041(2) 0.443(2) 0.478(2)
N6L N 0.045(1) 0.415(1) 0.518(2)
C7L C 0.0000 0.400(2) 0.540(2)
N6CA N -0.045(1) 0.415(1) 0.518(2)
C8L C 0.0000 0.368(2) 0.583(3)
C9L C -0.048(2) 0.353(2) 0.599(2)
C10L C -0.046(2) 0.323(2) 0.634(2)
N3L N 0.0000 0.304(2) 0.658(2)
Pd2L Pd 0.0000 0.2500 0.7103(3)
N3G N 0.0000 0.196(2) 0.658(2)
C10G C 0.046(2) 0.177(2) 0.634(2)
C9G C 0.048(2) 0.147(2) 0.599(2)
C8G C 0.0000 0.132(2) 0.583(3)
C7G C 0.0000 0.100(2) 0.540(2)
N6G N -0.045(1) 0.085(1) 0.518(2)
C6G C -0.041(2) 0.057(2) 0.478(2)
N2G N 0.0000 0.042(2) 0.454(2)
C6Q C 0.041(2) 0.057(2) 0.478(2)
N6Q N 0.045(1) 0.085(1) 0.518(2)
C3Q C 0.088(2) 0.044(1) 0.455(2)
C2Q C 0.087(1) 0.013(2) 0.415(2)
C1Q C 0.137(2) 0.002(1) 0.394(2)
N1Q N 0.178(1) 0.020(1) 0.414(2)
Pd1Q Pd 0.2433 0.0067(1) 0.3750
N1DA N 0.230(1) 0.072(1) 0.336(2)
C1DA C 0.248(1) 0.113(2) 0.356(2)
C2DA C 0.237(2) 0.163(1) 0.335(2)
C3DA C 0.206(1) 0.162(2) 0.295(2)
C4DA C 0.189(1) 0.115(2) 0.275(2)
C5DA C 0.201(2) 0.071(1) 0.299(2)
N4Q N 0.261(1) -0.058(1) 0.413(2)
C11Q C 0.298(2) -0.090(2) 0.386(3)
C11DA C 0.340(2) -0.048(2) 0.364(3)
N4DA N 0.308(1) -0.011(1) 0.337(2)
C5Q C 0.179(1) 0.049(2) 0.451(2)
C4Q C 0.135(2) 0.061(1) 0.475(2)
C3G C -0.088(2) 0.044(1) 0.455(2)
C2G C -0.087(1) 0.013(2) 0.415(2)
C1G C -0.137(2) 0.002(1) 0.394(2)
N1G N -0.178(1) 0.020(1) 0.414(2)
Pd1G Pd -0.2433 0.0067(1) 0.3750
N1K N -0.230(1) 0.072(1) 0.336(2)
C1K C -0.248(1) 0.113(2) 0.356(2)
C2K C -0.237(2) 0.163(1) 0.335(2)
C3K C -0.206(1) 0.162(2) 0.295(2)
C4K C -0.189(1) 0.115(2) 0.275(2)
C5K C -0.201(2) 0.071(1) 0.299(2)
N4G N -0.261(1) -0.058(1) 0.413(2)
C11G C -0.298(2) -0.090(2) 0.386(3)
C11K C -0.340(2) -0.048(2) 0.364(3)
N4K N -0.308(1) -0.011(1) 0.337(2)
C5G C -0.179(1) 0.049(2) 0.451(2)
C4G C -0.135(2) 0.061(1) 0.475(2)
C9Q C -0.048(2) 0.147(2) 0.599(2)
C10Q C -0.046(2) 0.177(2) 0.634(2)
N5L N 0.0000 0.197(2) 0.768(2)
C12L C 0.0000 0.225(3) 0.817(4)
C12G C 0.0000 0.275(3) 0.817(4)
N5G N 0.0000 0.303(2) 0.768(2)
C10CA C 0.046(2) 0.323(2) 0.634(2)
C9CA C 0.048(2) 0.353(2) 0.599(2)
C3L C 0.088(2) 0.456(1) 0.455(2)
C2L C 0.087(1) 0.487(2) 0.415(2)
C1L C 0.137(2) 0.498(1) 0.394(2)
N1L N 0.178(1) 0.480(1) 0.414(2)
C11L C 0.298(2) 0.590(2) 0.386(3)
N4L N 0.261(1) 0.558(1) 0.413(2)
C5L C 0.179(1) 0.451(2) 0.451(2)
C4L C 0.135(2) 0.439(1) 0.475(2)
N4R N -0.308(1) 0.511(1) 0.337(2)
C11R C -0.340(2) 0.548(2) 0.364(3)
C11CA C -0.298(2) 0.590(2) 0.386(3)
N4CA N -0.261(1) 0.558(1) 0.413(2)
C5R C -0.201(2) 0.429(1) 0.299(2)
C4R C -0.189(1) 0.385(2) 0.275(2)
C9R C -0.103(2) 0.202(2) 0.151(2)
C10R C -0.073(2) 0.204(2) 0.116(2)
C12K C 0.025(3) 0.2500 -0.067(4)
N5K N 0.053(2) 0.2500 -0.018(2)
C10DA C 0.073(2) 0.296(2) 0.116(2)
C9DA C 0.103(2) 0.298(2) 0.151(2)
N7? N 0.126(1) 0.078(1) 0.168(1)
N8? N 0.294(2) 0.2500 0.408(2)
N9? N 0.332(2) 0.2500 0.460(2)
N10? N 0.0000 0.115(3) 0.052(3)
N11? N 0.122(2) 0.516(2) 0.249(2)
N12? N 0.300(3) 0.5000 0.5000
N13? N 0.389(2) 0.164(2) 0.528(2)
N14? N 0.317(2) 0.452(2) 0.481(3)
N15? N 0.461(2) 0.069(2) 0.666(3)
loop_
_geom_bond_atom_site_label_1
_geom_bond_atom_site_label_2
_geom_bond_site_symmetry_1
_geom_bond_site_symmetry_2
Pd1 N1 1_555 1_555
Pd2 N3 1_555 1_555
O1 C20 1_555 1_555
N1 C1 1_555 1_555
N2 C6 1_555 1_555
N3 C10 1_555 1_555
N4 Pd1 1_555 1_555
N5 Pd2 1_555 1_555
N6 C6 1_555 1_555
C1 C2 1_555 1_555
C2 C3 1_555 1_555
C3 C4 1_555 1_555
C4 C5 1_555 1_555
C5 N1 1_555 1_555
C6 C3 1_555 1_555
C7 N6 1_555 1_555
C8 C7 1_555 1_555
C9 C8 1_555 1_555
C10 C9 1_555 1_555
C11 N4 1_555 1_555
C12 N5 1_555 1_555
C13 C14 1_555 1_555
C14 C15 1_555 1_555
C15 C14R 1_555 1_555
C16 C14 1_555 1_555
C17 C16 1_555 1_555
C18 C17 1_555 1_555
C19 C13 1_555 1_555
C20 C17 1_555 1_555
C6DA N2 1_555 1_555
N6DA C7 1_555 1_555
N3K Pd2 1_555 1_555
C10K N3K 1_555 1_555
C9K C10K 1_555 1_555
C8K C9K 1_555 1_555
C7K C8K 1_555 1_555
N6K C7K 1_555 1_555
C6K N6K 1_555 1_555
N2K C6K 1_555 1_555
C6R N2K 1_555 1_555
N6R C7K 1_555 1_555
C3R C6R 1_555 1_555
C2R C3R 1_555 1_555
C1R C2R 1_555 1_555
N1R C1R 1_555 1_555
Pd1R N1R 1_555 1_555
N1CA Pd1R 1_555 1_555
C1CA N1CA 1_555 1_555
C2CA C1CA 1_555 1_555
C3CA C2CA 1_555 1_555
C4CA C3CA 1_555 1_555
C5CA N1CA 1_555 1_555
C6CA C3CA 1_555 1_555
N2CA C6CA 1_555 1_555
C6L N2CA 1_555 1_555
N6L C6L 1_555 1_555
C7L N6L 1_555 1_555
N6CA C6CA 1_555 1_555
C8L C7L 1_555 1_555
C9L C8L 1_555 1_555
C10L C9L 1_555 1_555
N3L C10L 1_555 1_555
Pd2L N3L 1_555 1_555
N3G Pd2L 1_555 1_555
C10G N3G 1_555 1_555
C9G C10G 1_555 1_555
C8G C9G 1_555 1_555
C7G C8G 1_555 1_555
N6G C7G 1_555 1_555
C6G N6G 1_555 1_555
N2G C6G 1_555 1_555
C6Q N2G 1_555 1_555
N6Q C7G 1_555 1_555
C3Q C6Q 1_555 1_555
C2Q C3Q 1_555 1_555
C1Q C2Q 1_555 1_555
N1Q C1Q 1_555 1_555
Pd1Q N1Q 1_555 1_555
N1DA Pd1Q 1_555 1_555
C1DA N1DA 1_555 1_555
C2DA C1DA 1_555 1_555
C3DA C6DA 1_555 1_555
C4DA C3DA 1_555 1_555
C5DA N1DA 1_555 1_555
N4Q Pd1Q 1_555 1_555
C11Q N4Q 1_555 1_555
C11DA C11Q 1_555 1_555
N4DA Pd1Q 1_555 1_555
C5Q N1Q 1_555 1_555
C4Q C3Q 1_555 1_555
C3G C6G 1_555 1_555
C2G C3G 1_555 1_555
C1G C2G 1_555 1_555
N1G C1G 1_555 1_555
Pd1G N1G 1_555 1_555
N1K Pd1G 1_555 1_555
C1K N1K 1_555 1_555
C2K C1K 1_555 1_555
C3K C6K 1_555 1_555
C4K C3K 1_555 1_555
C5K N1K 1_555 1_555
N4G Pd1G 1_555 1_555
C11G N4G 1_555 1_555
C11K C11G 1_555 1_555
N4K Pd1G 1_555 1_555
C5G N1G 1_555 1_555
C4G C3G 1_555 1_555
C9Q C8G 1_555 1_555
C10Q N3G 1_555 1_555
N5L Pd2L 1_555 1_555
C12L N5L 1_555 1_555
C12G C12L 1_555 1_555
N5G Pd2L 1_555 1_555
C10CA N3L 1_555 1_555
C9CA C8L 1_555 1_555
C3L C6L 1_555 1_555
C2L C3L 1_555 1_555
C1L C2L 1_555 1_555
N1L Pd1 1_555 1_555
C11L C11 1_555 1_555
N4L Pd1 1_555 1_555
C5L N1L 1_555 1_555
C4L C3L 1_555 1_555
N4R Pd1R 1_555 1_555
C11R N4R 1_555 1_555
C11CA C11R 1_555 1_555
N4CA Pd1R 1_555 1_555
C5R N1R 1_555 1_555
C4R C3R 1_555 1_555
C9R C8K 1_555 1_555
C10R N3K 1_555 1_555
C12K C12 1_555 1_555
N5K Pd2 1_555 1_555
C10DA N3 1_555 1_555
C9DA C8 1_555 1_555
O1R C20 1_555 1_555
C13R C19 1_555 1_555
C14R C13R 1_555 1_555
C16R C17 1_555 1_555
C18 C19 1_555 1_555
C6DA N6DA 1_555 1_555
C6R N6R 1_555 1_555
C4CA C5CA 1_555 1_555
C7L N6CA 1_555 1_555
C6Q N6Q 1_555 1_555
C2DA C3DA 1_555 1_555
C4DA C5DA 1_555 1_555
C11DA N4DA 1_555 1_555
C5Q C4Q 1_555 1_555
C2K C3K 1_555 1_555
C4K C5K 1_555 1_555
C11K N4K 1_555 1_555
C5G C4G 1_555 1_555
C9Q C10Q 1_555 1_555
C12G N5G 1_555 1_555
C10CA C9CA 1_555 1_555
C1L N1L 1_555 1_555
C11L N4L 1_555 1_555
C5L C4L 1_555 1_555
C11CA N4CA 1_555 1_555
C5R C4R 1_555 1_555
C9R C10R 1_555 1_555
C12K N5K 1_555 1_555
C10DA C9DA 1_555 1_555
C14R C16R 1_555 1_555

#END
