
#######################################################################
#
#                 Cambridge Crystallographic Data Centre
#                                CCDC 
#
#######################################################################
#
# If this CIF has been generated from an entry in the Cambridge 
# Structural Database, then it will include bibliographic, chemical, 
# crystal, experimental, refinement or atomic coordinate data resulting 
# from the CCDC's data processing and validation procedures.
#
#######################################################################

data_TUTNOM
_chemical_formula_moiety         'C74 H48 Ag2 N6 O14,2(C1 H2 Cl2)'
_chemical_name_systematic        
'bis(\m~2~-9H-Fluorene-9,9-diyldi-4,1-phenylene dinicotinate)-bis(nitrato)-di-silver(i) dichloromethane solvate'
_symmetry_cell_setting           monoclinic
_symmetry_space_group_name_H-M   'P 21/c'
_symmetry_Int_Tables_number      14
_space_group_name_Hall           '-P 2ybc'
loop_
_symmetry_equiv_pos_site_id
_symmetry_equiv_pos_as_xyz
1 x,y,z
2 -x,1/2+y,1/2-z
3 -x,-y,-z
4 x,1/2-y,1/2+z
_cell_length_a                   10.4916(4)
_cell_length_b                   11.6347(4)
_cell_length_c                   28.4032(11)
_cell_angle_alpha                90
_cell_angle_beta                 100.3590(10)
_cell_angle_gamma                90
_cell_volume                     3410.57
_exptl_crystal_colour            colorless
_exptl_crystal_description       plate
_cell_formula_units_Z            2
loop_
_atom_site_label
_atom_site_type_symbol
_atom_site_fract_x
_atom_site_fract_y
_atom_site_fract_z
Ag1 Ag 0.34038(4) 0.14438(3) 0.993970(14)
O1 O 0.7078(3) 0.3137(3) 0.89598(13)
O2 O 0.6932(3) 0.5055(2) 0.88505(11)
O3 O 1.4910(3) 0.0520(3) 0.78052(10)
O4 O 1.4513(3) 0.1128(3) 0.85166(10)
O5 O 0.2965(5) -0.0127(4) 0.93855(18)
O6 O 0.3442(5) -0.1932(4) 0.9404(2)
O7 O 0.3932(8) -0.0880(6) 1.0000(2)
N1 N 0.3853(3) 0.3148(3) 0.96116(13)
N2 N 1.6777(4) -0.1280(3) 0.92786(13)
N3 N 0.3405(4) -0.0997(4) 0.95990(18)
C1 C 0.3248(4) 0.4150(4) 0.96455(15)
H1 H 0.2493 0.4149 0.9787
C2 C 0.3662(4) 0.5188(4) 0.94856(16)
H2 H 0.3202 0.5879 0.9517
C3 C 0.4762(4) 0.5192(4) 0.92783(14)
H3 H 0.5074 0.5888 0.9165
C4 C 0.5395(4) 0.4166(4) 0.92393(14)
C5 C 0.4919(4) 0.3166(4) 0.94122(15)
H4 H 0.5367 0.2465 0.9388
C6 C 0.6554(4) 0.4037(4) 0.90090(15)
C7 C 0.7981(4) 0.5013(3) 0.85961(15)
C8 C 0.7729(4) 0.5244(3) 0.81168(15)
H5 H 0.6877 0.5438 0.7961
C9 C 0.8737(4) 0.5191(3) 0.78601(14)
H6 H 0.8571 0.5344 0.7526
C10 C 0.9985(4) 0.4914(3) 0.80877(14)
C11 C 1.0211(4) 0.4734(4) 0.85780(15)
H7 H 1.1065 0.4572 0.8740
C12 C 0.9209(4) 0.4786(4) 0.88366(16)
H8 H 0.9370 0.4668 0.9173
C13 C 1.1110(3) 0.4815(3) 0.78037(13)
C14 C 1.1858(4) 0.5959(3) 0.78279(14)
C15 C 1.2502(4) 0.6534(4) 0.82241(15)
H9 H 1.2476 0.6258 0.8537
C16 C 1.3195(4) 0.7527(4) 0.81586(16)
H10 H 1.3657 0.7925 0.8428
C17 C 1.3212(4) 0.7933(4) 0.77043(17)
H11 H 1.3694 0.8606 0.7665
C18 C 1.2539(4) 0.7378(3) 0.73025(16)
H12 H 1.2538 0.7675 0.6991
C19 C 1.1867(3) 0.6381(3) 0.73676(14)
C20 C 1.1105(4) 0.5607(3) 0.70150(14)
C21 C 1.0796(4) 0.5669(4) 0.65200(15)
H13 H 1.1107 0.6285 0.6353
C22 C 1.0030(4) 0.4823(4) 0.62752(15)
H14 H 0.9801 0.4865 0.5936
C23 C 0.9587(4) 0.3907(4) 0.65176(16)
H15 H 0.9062 0.3331 0.6342
C24 C 0.9902(4) 0.3826(3) 0.70130(14)
H16 H 0.9614 0.3192 0.7176
C25 C 1.0648(3) 0.4691(3) 0.72652(13)
C26 C 1.2020(4) 0.3812(3) 0.79835(13)
C27 C 1.1545(4) 0.2786(3) 0.81315(15)
H17 H 1.0639 0.2703 0.8119
C28 C 1.2365(4) 0.1873(4) 0.82986(15)
H18 H 1.2031 0.1185 0.8409
C29 C 1.3668(4) 0.1994(3) 0.82989(14)
C30 C 1.4169(4) 0.2981(4) 0.81341(15)
H19 H 1.5068 0.3036 0.8125
C31 C 1.3343(4) 0.3893(3) 0.79809(14)
H20 H 1.3685 0.4581 0.7873
C32 C 1.5079(4) 0.0445(3) 0.82327(15)
C33 C 1.5921(4) -0.0422(3) 0.85205(14)
C34 C 1.6597(4) -0.1202(3) 0.82882(17)
H21 H 1.6532 -0.1180 0.7950
C35 C 1.7368(4) -0.2013(4) 0.85606(18)
H22 H 1.7853 -0.2552 0.8413
C36 C 1.7421(4) -0.2027(4) 0.90460(18)
H23 H 1.7941 -0.2596 0.9228
C37 C 1.6037(4) -0.0490(3) 0.90115(15)
H24 H 1.5573 0.0046 0.9168
Ag1B Ag 1.65962(4) -0.14438(3) 1.006030(14)
O1B O 1.2922(3) -0.3137(3) 1.10402(13)
O2B O 1.3068(3) -0.5055(2) 1.11495(11)
O3B O 0.5090(3) -0.0520(3) 1.21948(10)
O4B O 0.5487(3) -0.1128(3) 1.14834(10)
O5B O 1.7035(5) 0.0127(4) 1.06145(18)
O6B O 1.6558(5) 0.1932(4) 1.0596(2)
O7B O 1.6068(8) 0.0880(6) 1.0000(2)
N1B N 1.6147(3) -0.3148(3) 1.03884(13)
N2B N 0.3223(4) 0.1280(3) 1.07214(13)
N3B N 1.6595(4) 0.0997(4) 1.04010(18)
C1B C 1.6752(4) -0.4150(4) 1.03545(15)
H1B H 1.7507 -0.4149 1.0213
C2B C 1.6338(4) -0.5188(4) 1.05144(16)
H2B H 1.6798 -0.5879 1.0483
C3B C 1.5238(4) -0.5192(4) 1.07217(14)
H3B H 1.4926 -0.5888 1.0835
C4B C 1.4605(4) -0.4166(4) 1.07607(14)
C5B C 1.5081(4) -0.3166(4) 1.05878(15)
H4B H 1.4633 -0.2465 1.0612
C6B C 1.3446(4) -0.4037(4) 1.09910(15)
C7B C 1.2019(4) -0.5013(3) 1.14039(15)
C8B C 1.2271(4) -0.5244(3) 1.18832(15)
H5B H 1.3123 -0.5438 1.2039
C9B C 1.1263(4) -0.5191(3) 1.21399(14)
H6B H 1.1429 -0.5344 1.2474
C10B C 1.0015(4) -0.4914(3) 1.19123(14)
C11B C 0.9789(4) -0.4734(4) 1.14220(15)
H7B H 0.8935 -0.4572 1.1260
C12B C 1.0791(4) -0.4786(4) 1.11634(16)
H8B H 1.0630 -0.4668 1.0827
C13B C 0.8890(3) -0.4815(3) 1.21963(13)
C14B C 0.8142(4) -0.5959(3) 1.21721(14)
C15B C 0.7498(4) -0.6534(4) 1.17759(15)
H9B H 0.7524 -0.6258 1.1463
C16B C 0.6805(4) -0.7527(4) 1.18414(16)
H10B H 0.6343 -0.7925 1.1572
C17B C 0.6788(4) -0.7933(4) 1.22957(17)
H11B H 0.6306 -0.8606 1.2335
C18B C 0.7461(4) -0.7378(3) 1.26975(16)
H12B H 0.7462 -0.7675 1.3009
C19B C 0.8133(3) -0.6381(3) 1.26324(14)
C20B C 0.8895(4) -0.5607(3) 1.29850(14)
C21B C 0.9204(4) -0.5669(4) 1.34800(15)
H13B H 0.8893 -0.6285 1.3647
C22B C 0.9970(4) -0.4823(4) 1.37248(15)
H14B H 1.0199 -0.4865 1.4064
C23B C 1.0413(4) -0.3907(4) 1.34824(16)
H15B H 1.0938 -0.3331 1.3658
C24B C 1.0098(4) -0.3826(3) 1.29870(14)
H16B H 1.0386 -0.3192 1.2824
C25B C 0.9352(3) -0.4691(3) 1.27348(13)
C26B C 0.7980(4) -0.3812(3) 1.20165(13)
C27B C 0.8455(4) -0.2786(3) 1.18685(15)
H17B H 0.9361 -0.2703 1.1881
C28B C 0.7635(4) -0.1873(4) 1.17014(15)
H18B H 0.7969 -0.1185 1.1591
C29B C 0.6332(4) -0.1994(3) 1.17011(14)
C30B C 0.5831(4) -0.2981(4) 1.18659(15)
H19B H 0.4932 -0.3036 1.1875
C31B C 0.6657(4) -0.3893(3) 1.20191(14)
H20B H 0.6315 -0.4581 1.2127
C32B C 0.4921(4) -0.0445(3) 1.17673(15)
C33B C 0.4079(4) 0.0422(3) 1.14795(14)
C34B C 0.3403(4) 0.1202(3) 1.17118(17)
H21B H 0.3468 0.1180 1.2050
C35B C 0.2632(4) 0.2013(4) 1.14394(18)
H22B H 0.2147 0.2552 1.1587
C36B C 0.2579(4) 0.2027(4) 1.09540(18)
H23B H 0.2059 0.2596 1.0772
C37B C 0.3963(4) 0.0490(3) 1.09885(15)
H24B H 0.4427 -0.0046 1.0832
Cl1 Cl 0.9336(2) 0.35332(19) 1.01692(9)
Cl2 Cl 1.0288(5) 0.1330(5) 0.9867(2)
C38 C 0.9086(6) 0.2230(6) 0.9905(3)
H25 H 0.8477 0.1814 1.0073
H26 H 0.8623 0.2366 0.9574
loop_
_geom_bond_atom_site_label_1
_geom_bond_atom_site_label_2
_geom_bond_site_symmetry_1
_geom_bond_site_symmetry_2
Ag1 O5 1_555 1_555
Cl1 C38 1_555 1_555
Cl2 C38 1_555 1_555
O1 C6 1_555 1_555
O2 C6 1_555 1_555
O3 C32 1_555 1_555
O4 C29 1_555 1_555
O5 N3 1_555 1_555
O6 N3 1_555 1_555
O7 N3 1_555 1_555
N1 Ag1 1_555 1_555
N2 C36 1_555 1_555
C1 N1 1_555 1_555
H1 C1 1_555 1_555
C2 C1 1_555 1_555
H2 C2 1_555 1_555
C3 C2 1_555 1_555
H3 C3 1_555 1_555
C4 C3 1_555 1_555
C5 N1 1_555 1_555
H4 C5 1_555 1_555
C6 C4 1_555 1_555
C7 O2 1_555 1_555
C8 C7 1_555 1_555
H5 C8 1_555 1_555
C9 C8 1_555 1_555
H6 C9 1_555 1_555
C10 C9 1_555 1_555
C11 C10 1_555 1_555
H7 C11 1_555 1_555
C12 C7 1_555 1_555
H8 C12 1_555 1_555
C13 C10 1_555 1_555
C14 C13 1_555 1_555
C15 C14 1_555 1_555
H9 C15 1_555 1_555
C16 C15 1_555 1_555
H10 C16 1_555 1_555
C17 C16 1_555 1_555
H11 C17 1_555 1_555
C18 C17 1_555 1_555
H12 C18 1_555 1_555
C19 C14 1_555 1_555
C20 C19 1_555 1_555
C21 C20 1_555 1_555
H13 C21 1_555 1_555
C22 C21 1_555 1_555
H14 C22 1_555 1_555
C23 C22 1_555 1_555
H15 C23 1_555 1_555
C24 C23 1_555 1_555
H16 C24 1_555 1_555
C25 C13 1_555 1_555
C26 C13 1_555 1_555
C27 C26 1_555 1_555
H17 C27 1_555 1_555
C28 C27 1_555 1_555
H18 C28 1_555 1_555
C29 C28 1_555 1_555
C30 C29 1_555 1_555
H19 C30 1_555 1_555
C31 C26 1_555 1_555
H20 C31 1_555 1_555
C32 O4 1_555 1_555
C33 C32 1_555 1_555
C34 C33 1_555 1_555
H21 C34 1_555 1_555
C35 C34 1_555 1_555
H22 C35 1_555 1_555
C36 C35 1_555 1_555
H23 C36 1_555 1_555
C37 N2 1_555 1_555
H24 C37 1_555 1_555
C38 H25 1_555 1_555
H26 C38 1_555 1_555
Ag1B N2 1_555 1_555
O1B C6B 1_555 1_555
O2B C6B 1_555 1_555
O3B C32B 1_555 1_555
O4B C29B 1_555 1_555
O5B Ag1B 1_555 1_555
O6B N3B 1_555 1_555
O7B N3B 1_555 1_555
N1B Ag1B 1_555 1_555
N2B Ag1 1_555 1_555
N3B O5B 1_555 1_555
C1B N1B 1_555 1_555
H1B C1B 1_555 1_555
C2B C1B 1_555 1_555
H2B C2B 1_555 1_555
C3B C2B 1_555 1_555
H3B C3B 1_555 1_555
C4B C3B 1_555 1_555
C5B N1B 1_555 1_555
H4B C5B 1_555 1_555
C6B C4B 1_555 1_555
C7B O2B 1_555 1_555
C8B C7B 1_555 1_555
H5B C8B 1_555 1_555
C9B C8B 1_555 1_555
H6B C9B 1_555 1_555
C10B C9B 1_555 1_555
C11B C10B 1_555 1_555
H7B C11B 1_555 1_555
C12B C7B 1_555 1_555
H8B C12B 1_555 1_555
C13B C10B 1_555 1_555
C14B C13B 1_555 1_555
C15B C14B 1_555 1_555
H9B C15B 1_555 1_555
C16B C15B 1_555 1_555
H10B C16B 1_555 1_555
C17B C16B 1_555 1_555
H11B C17B 1_555 1_555
C18B C17B 1_555 1_555
H12B C18B 1_555 1_555
C19B C14B 1_555 1_555
C20B C19B 1_555 1_555
C21B C20B 1_555 1_555
H13B C21B 1_555 1_555
C22B C21B 1_555 1_555
H14B C22B 1_555 1_555
C23B C22B 1_555 1_555
H15B C23B 1_555 1_555
C24B C23B 1_555 1_555
H16B C24B 1_555 1_555
C25B C13B 1_555 1_555
C26B C13B 1_555 1_555
C27B C26B 1_555 1_555
H17B C27B 1_555 1_555
C28B C27B 1_555 1_555
H18B C28B 1_555 1_555
C29B C28B 1_555 1_555
C30B C29B 1_555 1_555
H19B C30B 1_555 1_555
C31B C26B 1_555 1_555
H20B C31B 1_555 1_555
C32B O4B 1_555 1_555
C33B C32B 1_555 1_555
C34B C33B 1_555 1_555
H21B C34B 1_555 1_555
C35B C34B 1_555 1_555
H22B C35B 1_555 1_555
C36B N2B 1_555 1_555
H23B C36B 1_555 1_555
C37B N2B 1_555 1_555
H24B C37B 1_555 1_555
C4 C5 1_555 1_555
C11 C12 1_555 1_555
C18 C19 1_555 1_555
C20 C25 1_555 1_555
C24 C25 1_555 1_555
C30 C31 1_555 1_555
C33 C37 1_555 1_555
C4B C5B 1_555 1_555
C11B C12B 1_555 1_555
C18B C19B 1_555 1_555
C20B C25B 1_555 1_555
C24B C25B 1_555 1_555
C30B C31B 1_555 1_555
C33B C37B 1_555 1_555
C35B C36B 1_555 1_555

#END
