
#######################################################################
#
#                 Cambridge Crystallographic Data Centre
#                                CCDC 
#
#######################################################################
#
# If this CIF has been generated from an entry in the Cambridge 
# Structural Database, then it will include bibliographic, chemical, 
# crystal, experimental, refinement or atomic coordinate data resulting 
# from the CCDC's data processing and validation procedures.
#
#######################################################################

data_TUZJAA
_chemical_formula_moiety         'C64 H64 N16 O8 Pd2 4+,4(N1 O3 1-),28(H2 O1)'
_chemical_name_systematic        
'tetrakis(\m~2~-1,4-bis(3-pyridylcarbonyl)piperazine)-di-palladium(ii) tetranitrate octacosahydrate'
_symmetry_cell_setting           tetragonal
_symmetry_space_group_name_H-M   'P 4/n'
_symmetry_Int_Tables_number      85
_space_group_name_Hall           '-P 4a'
loop_
_symmetry_equiv_pos_site_id
_symmetry_equiv_pos_as_xyz
1 x,y,z
2 1/2-x,1/2-y,z
3 1/2-y,x,z
4 y,1/2-x,z
5 -x,-y,-z
6 1/2+x,1/2+y,-z
7 1/2+y,-x,-z
8 -y,1/2+x,-z
_cell_length_a                   17.0336(7)
_cell_length_b                   17.0336(7)
_cell_length_c                   17.5784(9)
_cell_angle_alpha                90
_cell_angle_beta                 90
_cell_angle_gamma                90
_cell_volume                     5100.26
_exptl_crystal_colour            yellow
_exptl_crystal_description       blocks
_cell_formula_units_Z            2
loop_
_atom_site_label
_atom_site_type_symbol
_atom_site_fract_x
_atom_site_fract_y
_atom_site_fract_z
O3 O 0.2500 0.2500 0.3945(8)
O4 O 0.2500 0.2500 0.2738(7)
N2 N 0.2500 0.2500 0.3343(11)
O5 O 0.5433(6) 0.4985(8) 0.6511(6)
O6 O 0.1330(7) 0.5216(10) 0.5665(8)
O7 O 0.218(2) 0.590(6) 0.321(4)
O8 O 0.3245(9) 0.4883(13) 0.2643(11)
O9 O 0.1925(17) 0.652(2) 0.577(2)
O10 O 0.5258(10) 0.6404(11) 0.5835(10)
O11 O 0.1498(15) 0.7201(19) 0.946(2)
O12 O 0.0126(7) 0.6599(6) 0.9028(8)
Pd1 Pd 0.2500 0.2500 1.10172(6)
Pd2 Pd 0.2500 0.2500 0.56446(6)
O13 O 0.4144(5) 0.5171(6) 0.7380(4)
O14 O 0.0581(5) 0.4932(7) 0.9223(5)
N3 N 0.2882(4) 0.3625(4) 0.5683(3)
N4 N 0.1976(3) 0.3559(3) 1.0970(3)
N5 N 0.1817(5) 0.4919(7) 0.8882(5)
N6 N 0.2920(5) 0.5052(6) 0.7719(5)
C1 C 0.3027(5) 0.4045(5) 0.5053(4)
H1 H 0.2935 0.3824 0.4578
C2 C 0.3307(6) 0.4791(6) 0.5102(5)
H2 H 0.3399 0.5076 0.4660
C3 C 0.3455(6) 0.5127(6) 0.5795(6)
H3 H 0.3672 0.5627 0.5826
C4 C 0.3278(5) 0.4715(5) 0.6442(4)
C5 C 0.3001(4) 0.3955(5) 0.6371(4)
H4 H 0.2895 0.3665 0.6807
C6 C 0.3469(6) 0.5007(6) 0.7231(6)
C7 C 0.3119(8) 0.5248(12) 0.8505(7)
H5 H 0.3669 0.5131 0.8595
H6 H 0.3043 0.5807 0.8585
C8 C 0.2669(8) 0.4839(11) 0.9009(7)
H7 H 0.2791 0.5018 0.9519
H8 H 0.2808 0.4288 0.8978
C9 C 0.1601(8) 0.5030(18) 0.8063(9)
H9 H 0.1154 0.4694 0.7960
H10 H 0.1422 0.5568 0.8005
C10 C 0.2065(7) 0.4915(13) 0.7584(8)
H11 H 0.1915 0.5234 0.7151
H12 H 0.2007 0.4371 0.7430
C11 C 0.1261(6) 0.4839(6) 0.9379(6)
C12 C 0.1472(4) 0.4576(5) 1.0170(5)
C13 C 0.1822(4) 0.3870(4) 1.0276(4)
H13 H 0.1965 0.3582 0.9848
C14 C 0.1777(5) 0.3982(5) 1.1583(4)
H14 H 0.1892 0.3787 1.2065
C15 C 0.1409(6) 0.4693(6) 1.1517(6)
H15 H 0.1262 0.4971 1.1949
C16 C 0.1259(6) 0.4992(6) 1.0804(6)
H16 H 0.1014 0.5477 1.0752
O13A O 0.0856(5) -0.0171(6) 0.7380(4)
O13B O -0.0171(6) 0.4144(5) 0.7380(4)
O13C O 0.5171(6) 0.0856(5) 0.7380(4)
O14A O 0.4419(5) 0.0068(7) 0.9223(5)
O14B O 0.0068(7) 0.0581(5) 0.9223(5)
O14C O 0.4932(7) 0.4419(5) 0.9223(5)
N3A N 0.2118(4) 0.1375(4) 0.5683(3)
N3B N 0.1375(4) 0.2882(4) 0.5683(3)
N3C N 0.3625(4) 0.2118(4) 0.5683(3)
N4A N 0.3024(3) 0.1441(3) 1.0970(3)
N4B N 0.1441(3) 0.1976(3) 1.0970(3)
N4C N 0.3559(3) 0.3024(3) 1.0970(3)
N5A N 0.3183(5) 0.0081(7) 0.8882(5)
N5B N 0.0081(7) 0.1817(5) 0.8882(5)
N5C N 0.4919(7) 0.3183(5) 0.8882(5)
N6A N 0.2080(5) -0.0052(6) 0.7719(5)
N6B N -0.0052(6) 0.2920(5) 0.7719(5)
N6C N 0.5052(6) 0.2080(5) 0.7719(5)
C1A C 0.1973(5) 0.0955(5) 0.5053(4)
C1B C 0.0955(5) 0.3027(5) 0.5053(4)
C1C C 0.4045(5) 0.1973(5) 0.5053(4)
H1A H 0.2065 0.1176 0.4578
H1C H 0.3824 0.2065 0.4578
H1B H 0.1176 0.2935 0.4578
C2A C 0.1693(6) 0.0209(6) 0.5102(5)
C2B C 0.0209(6) 0.3307(6) 0.5102(5)
C2C C 0.4791(6) 0.1693(6) 0.5102(5)
H2A H 0.1601 -0.0076 0.4660
H2C H 0.5076 0.1601 0.4660
H2B H -0.0076 0.3399 0.4660
C3A C 0.1545(6) -0.0127(6) 0.5795(6)
C3B C -0.0127(6) 0.3455(6) 0.5795(6)
C3C C 0.5127(6) 0.1545(6) 0.5795(6)
H3A H 0.1328 -0.0627 0.5826
H3C H 0.5627 0.1328 0.5826
H3B H -0.0627 0.3672 0.5826
C4A C 0.1722(5) 0.0285(5) 0.6442(4)
C4B C 0.0285(5) 0.3278(5) 0.6442(4)
C4C C 0.4715(5) 0.1722(5) 0.6442(4)
C5A C 0.1999(4) 0.1045(5) 0.6371(4)
C5C C 0.3955(5) 0.1999(4) 0.6371(4)
C5B C 0.1045(5) 0.3001(4) 0.6371(4)
H4A H 0.2105 0.1335 0.6807
H4C H 0.3665 0.2105 0.6807
H4B H 0.1335 0.2895 0.6807
C6A C 0.1531(6) -0.0007(6) 0.7231(6)
C6B C -0.0007(6) 0.3469(6) 0.7231(6)
C6C C 0.5007(6) 0.1531(6) 0.7231(6)
C7A C 0.1881(8) -0.0248(12) 0.8505(7)
C7B C -0.0248(12) 0.3119(8) 0.8505(7)
C7C C 0.5248(12) 0.1881(8) 0.8505(7)
H5A H 0.1331 -0.0131 0.8595
H5C H 0.5131 0.1331 0.8595
H5B H -0.0131 0.3669 0.8595
H6A H 0.1957 -0.0807 0.8585
H6C H 0.5807 0.1957 0.8585
H6B H -0.0807 0.3043 0.8585
C8A C 0.2331(8) 0.0161(11) 0.9009(7)
C8B C 0.0161(11) 0.2669(8) 0.9009(7)
C8C C 0.4839(11) 0.2331(8) 0.9009(7)
H7C H 0.5018 0.2209 0.9519
H7B H -0.0018 0.2791 0.9519
H7A H 0.2209 -0.0018 0.9519
H8C H 0.4288 0.2192 0.8978
H8B H 0.0712 0.2808 0.8978
H8A H 0.2192 0.0712 0.8978
C9A C 0.3399(8) -0.0030(18) 0.8063(9)
C9C C 0.5030(18) 0.3399(8) 0.8063(9)
C9B C -0.0030(18) 0.1601(8) 0.8063(9)
H9A H 0.3846 0.0306 0.7960
H9C H 0.4694 0.3846 0.7960
H9B H 0.0306 0.1154 0.7960
H10A H 0.3578 -0.0568 0.8005
H10C H 0.5568 0.3578 0.8005
H10B H -0.0568 0.1422 0.8005
C10A C 0.2935(7) 0.0085(13) 0.7584(8)
C10C C 0.4915(13) 0.2935(7) 0.7584(8)
C10B C 0.0085(13) 0.2065(7) 0.7584(8)
H11A H 0.3085 -0.0234 0.7151
H11C H 0.5234 0.3085 0.7151
H11B H -0.0234 0.1915 0.7151
H12A H 0.2993 0.0629 0.7430
H12C H 0.4371 0.2993 0.7430
H12B H 0.0629 0.2007 0.7430
C11A C 0.3739(6) 0.0161(6) 0.9379(6)
C11B C 0.0161(6) 0.1261(6) 0.9379(6)
C11C C 0.4839(6) 0.3739(6) 0.9379(6)
C12A C 0.3528(4) 0.0424(5) 1.0170(5)
C12B C 0.0424(5) 0.1472(4) 1.0170(5)
C12C C 0.4576(5) 0.3528(4) 1.0170(5)
C13A C 0.3178(4) 0.1130(4) 1.0276(4)
C13B C 0.1130(4) 0.1822(4) 1.0276(4)
C13C C 0.3870(4) 0.3178(4) 1.0276(4)
H13C H 0.3582 0.3035 0.9848
H13B H 0.1418 0.1965 0.9848
H13A H 0.3035 0.1418 0.9848
C14C C 0.3982(5) 0.3223(5) 1.1583(4)
C14B C 0.1018(5) 0.1777(5) 1.1583(4)
C14A C 0.3223(5) 0.1018(5) 1.1583(4)
H14C H 0.3787 0.3108 1.2065
H14B H 0.1213 0.1892 1.2065
H14A H 0.3108 0.1213 1.2065
C15C C 0.4693(6) 0.3591(6) 1.1517(6)
C15B C 0.0307(6) 0.1409(6) 1.1517(6)
C15A C 0.3591(6) 0.0307(6) 1.1517(6)
H15C H 0.4971 0.3738 1.1949
H15B H 0.0029 0.1262 1.1949
H15A H 0.3738 0.0029 1.1949
C16C C 0.4992(6) 0.3741(6) 1.0804(6)
C16B C 0.0008(6) 0.1259(6) 1.0804(6)
C16A C 0.3741(6) 0.0008(6) 1.0804(6)
H16C H 0.5477 0.3986 1.0752
H16B H -0.0477 0.1014 1.0752
H16A H 0.3986 -0.0477 1.0752
O1 O 0.2500 0.2500 0.8949(9)
O2 O 0.2500 0.2500 0.7653(12)
N1 N 0.2500 0.2500 0.8303(8)
loop_
_geom_bond_atom_site_label_1
_geom_bond_atom_site_label_2
_geom_bond_site_symmetry_1
_geom_bond_site_symmetry_2
O1 N1 1_555 1_555
O2 N1 1_555 1_555
O3 N2 1_555 1_555
O4 N2 1_555 1_555
Pd1 N4 1_555 1_555
Pd2 N3 1_555 1_555
O13 C6 1_555 1_555
O14 C11 1_555 1_555
N3 C1 1_555 1_555
N4 C13 1_555 1_555
N5 C8 1_555 1_555
N6 C6 1_555 1_555
C1 H1 1_555 1_555
C2 C1 1_555 1_555
H2 C2 1_555 1_555
C3 C2 1_555 1_555
H3 C3 1_555 1_555
C4 C3 1_555 1_555
C5 N3 1_555 1_555
H4 C5 1_555 1_555
C6 C4 1_555 1_555
C7 N6 1_555 1_555
H5 C7 1_555 1_555
H6 C7 1_555 1_555
C8 C7 1_555 1_555
H7 C8 1_555 1_555
H8 C8 1_555 1_555
C9 N5 1_555 1_555
H9 C9 1_555 1_555
H10 C9 1_555 1_555
C10 N6 1_555 1_555
H11 C10 1_555 1_555
H12 C10 1_555 1_555
C11 N5 1_555 1_555
C12 C11 1_555 1_555
C13 C12 1_555 1_555
H13 C13 1_555 1_555
C14 N4 1_555 1_555
H14 C14 1_555 1_555
C15 C14 1_555 1_555
H15 C15 1_555 1_555
C16 C12 1_555 1_555
H16 C16 1_555 1_555
O13A C6A 1_555 1_555
O13B C6B 1_555 1_555
O13C C6C 1_555 1_555
O14A C11A 1_555 1_555
O14B C11B 1_555 1_555
O14C C11C 1_555 1_555
N3A Pd2 1_555 1_555
N3B Pd2 1_555 1_555
N3C Pd2 1_555 1_555
N4A Pd1 1_555 1_555
N4B Pd1 1_555 1_555
N4C Pd1 1_555 1_555
N5A C8A 1_555 1_555
N5B C8B 1_555 1_555
N5C C8C 1_555 1_555
N6A C6A 1_555 1_555
N6B C6B 1_555 1_555
N6C C6C 1_555 1_555
C1A N3A 1_555 1_555
C1B N3B 1_555 1_555
C1C N3C 1_555 1_555
H1A C1A 1_555 1_555
H1C C1C 1_555 1_555
H1B C1B 1_555 1_555
C2A C1A 1_555 1_555
C2B C1B 1_555 1_555
C2C C1C 1_555 1_555
H2A C2A 1_555 1_555
H2C C2C 1_555 1_555
H2B C2B 1_555 1_555
C3A C2A 1_555 1_555
C3B C2B 1_555 1_555
C3C C2C 1_555 1_555
H3A C3A 1_555 1_555
H3C C3C 1_555 1_555
H3B C3B 1_555 1_555
C4A C3A 1_555 1_555
C4B C3B 1_555 1_555
C4C C3C 1_555 1_555
C5A N3A 1_555 1_555
C5C N3C 1_555 1_555
C5B N3B 1_555 1_555
H4A C5A 1_555 1_555
H4C C5C 1_555 1_555
H4B C5B 1_555 1_555
C6A C4A 1_555 1_555
C6B C4B 1_555 1_555
C6C C4C 1_555 1_555
C7A N6A 1_555 1_555
C7B N6B 1_555 1_555
C7C N6C 1_555 1_555
H5A C7A 1_555 1_555
H5C C7C 1_555 1_555
H5B C7B 1_555 1_555
H6A C7A 1_555 1_555
H6C C7C 1_555 1_555
H6B C7B 1_555 1_555
C8A C7A 1_555 1_555
C8B C7B 1_555 1_555
C8C C7C 1_555 1_555
H7C C8C 1_555 1_555
H7B C8B 1_555 1_555
H7A C8A 1_555 1_555
H8C C8C 1_555 1_555
H8B C8B 1_555 1_555
H8A C8A 1_555 1_555
C9A N5A 1_555 1_555
C9C N5C 1_555 1_555
C9B N5B 1_555 1_555
H9A C9A 1_555 1_555
H9C C9C 1_555 1_555
H9B C9B 1_555 1_555
H10A C9A 1_555 1_555
H10C C9C 1_555 1_555
H10B C9B 1_555 1_555
C10A N6A 1_555 1_555
C10C N6C 1_555 1_555
C10B N6B 1_555 1_555
H11A C10A 1_555 1_555
H11C C10C 1_555 1_555
H11B C10B 1_555 1_555
H12A C10A 1_555 1_555
H12C C10C 1_555 1_555
H12B C10B 1_555 1_555
C11A N5A 1_555 1_555
C11B N5B 1_555 1_555
C11C N5C 1_555 1_555
C12A C11A 1_555 1_555
C12B C11B 1_555 1_555
C12C C11C 1_555 1_555
C13A N4A 1_555 1_555
C13B N4B 1_555 1_555
C13C N4C 1_555 1_555
H13C C13C 1_555 1_555
H13B C13B 1_555 1_555
H13A C13A 1_555 1_555
C14C N4C 1_555 1_555
C14B N4B 1_555 1_555
C14A N4A 1_555 1_555
H14C C14C 1_555 1_555
H14B C14B 1_555 1_555
H14A C14A 1_555 1_555
C15C C14C 1_555 1_555
C15B C14B 1_555 1_555
C15A C14A 1_555 1_555
H15C C15C 1_555 1_555
H15B C15B 1_555 1_555
H15A C15A 1_555 1_555
C16C C12C 1_555 1_555
C16B C12B 1_555 1_555
C16A C12A 1_555 1_555
H16C C16C 1_555 1_555
H16B C16B 1_555 1_555
H16A C16A 1_555 1_555
C4 C5 1_555 1_555
C9 C10 1_555 1_555
C15 C16 1_555 1_555
C4A C5A 1_555 1_555
C4B C5B 1_555 1_555
C4C C5C 1_555 1_555
C9A C10A 1_555 1_555
C9C C10C 1_555 1_555
C9B C10B 1_555 1_555
C12A C13A 1_555 1_555
C12B C13B 1_555 1_555
C12C C13C 1_555 1_555
C15C C16C 1_555 1_555
C15B C16B 1_555 1_555
C15A C16A 1_555 1_555

#END
