
#######################################################################
#
#                 Cambridge Crystallographic Data Centre
#                                CCDC 
#
#######################################################################
#
# If this CIF has been generated from an entry in the Cambridge 
# Structural Database, then it will include bibliographic, chemical, 
# crystal, experimental, refinement or atomic coordinate data resulting 
# from the CCDC's data processing and validation procedures.
#
#######################################################################

data_UDUJIN
_chemical_formula_moiety         'C112 H68 N32 Nd2 O2 Ru4 2-,2(K1 1+),16(H2 O1)'
_chemical_name_systematic        
'Di-potassium hexakis(\m~2~-cyano)-diaqua-decacyano-octakis(1,10-phenanthroline)-di-neodymium(iii)-tetra-ruthenium(ii) hexadecahydrate'
_symmetry_cell_setting           monoclinic
_symmetry_space_group_name_H-M   'P 21/c'
_symmetry_Int_Tables_number      14
_space_group_name_Hall           '-P 2ybc'
loop_
_symmetry_equiv_pos_site_id
_symmetry_equiv_pos_as_xyz
1 x,y,z
2 -x,1/2+y,1/2-z
3 -x,-y,-z
4 x,1/2-y,1/2+z
_cell_length_a                   14.3600(9)
_cell_length_b                   27.9387(16)
_cell_length_c                   17.3122(11)
_cell_angle_alpha                90
_cell_angle_beta                 100.949(3)
_cell_angle_gamma                90
_cell_volume                     6819.22
_exptl_crystal_colour            red
_exptl_crystal_description       block
_cell_formula_units_Z            2
loop_
_atom_site_label
_atom_site_type_symbol
_atom_site_fract_x
_atom_site_fract_y
_atom_site_fract_z
Nd1 Nd -0.26430(2) 0.020482(13) -0.64734(2)
Ru1 Ru 0.06816(4) 0.12388(2) -0.53562(4)
Ru2 Ru -0.42950(5) -0.13238(2) -0.82386(4)
C1 C 0.2599(5) 0.1660(3) -0.4438(4)
H1 H 0.2739 0.1348 -0.4231
C2 C 0.3244(6) 0.2024(3) -0.4198(5)
H2 H 0.3811 0.1958 -0.3832
C3 C 0.3070(6) 0.2473(3) -0.4482(5)
H3 H 0.3512 0.2722 -0.4312
C4 C 0.2239(6) 0.2572(3) -0.5026(6)
C5 C 0.1984(8) 0.3019(3) -0.5392(6)
H4 H 0.2409 0.3280 -0.5264
C6 C 0.1186(9) 0.3092(3) -0.5903(7)
H5 H 0.1054 0.3401 -0.6123
C7 C 0.0509(7) 0.2710(3) -0.6132(7)
C8 C -0.0327(8) 0.2747(4) -0.6692(8)
H6 H -0.0488 0.3041 -0.6962
C9 C -0.0908(7) 0.2362(4) -0.6849(7)
H7 H -0.1474 0.2383 -0.7234
C10 C -0.0670(6) 0.1933(3) -0.6441(6)
H8 H -0.1103 0.1673 -0.6532
C11 C 0.0736(6) 0.2259(3) -0.5777(5)
C12 C 0.1600(5) 0.2188(3) -0.5240(5)
C13 C -0.0450(5) 0.0854(2) -0.5729(5)
C14 C 0.0139(6) 0.1384(3) -0.4367(6)
C15 C 0.1172(6) 0.1072(3) -0.6357(6)
C16 C 0.1349(5) 0.0680(3) -0.4828(5)
C17 C -0.2441(6) 0.0598(3) -0.4534(5)
H9 H -0.1796 0.0530 -0.4550
C18 C -0.2652(7) 0.0800(3) -0.3852(5)
H10 H -0.2159 0.0878 -0.3423
C19 C -0.3553(7) 0.0882(3) -0.3810(5)
H11 H -0.3696 0.1023 -0.3347
C20 C -0.4298(6) 0.0765(2) -0.4430(4)
C21 C -0.5277(6) 0.0817(3) -0.4426(5)
H12 H -0.5462 0.0947 -0.3971
C22 C -0.5948(6) 0.0692(3) -0.5025(5)
H13 H -0.6595 0.0723 -0.4983
C23 C -0.5708(5) 0.0510(2) -0.5740(5)
C24 C -0.6404(5) 0.0388(3) -0.6394(5)
H14 H -0.7058 0.0429 -0.6383
C25 C -0.6120(5) 0.0205(2) -0.7056(5)
H15 H -0.6573 0.0118 -0.7508
C26 C -0.5147(5) 0.0152(2) -0.7041(4)
H16 H -0.4959 0.0019 -0.7493
C27 C -0.4750(5) 0.0452(2) -0.5791(4)
C28 C -0.4026(5) 0.0571(2) -0.5127(4)
C29 C -0.2801(5) 0.1454(2) -0.6127(5)
H17 H -0.2383 0.1361 -0.5657
C30 C -0.3108(6) 0.1937(3) -0.6206(5)
H18 H -0.2878 0.2165 -0.5808
C31 C -0.3736(6) 0.2067(3) -0.6861(5)
H19 H -0.3971 0.2385 -0.6918
C32 C -0.4033(5) 0.1729(3) -0.7452(5)
C33 C -0.4705(7) 0.1843(3) -0.8167(5)
H20 H -0.4991 0.2150 -0.8230
C34 C -0.4921(7) 0.1515(3) -0.8737(6)
H21 H -0.5372 0.1593 -0.9195
C35 C -0.4492(6) 0.1050(3) -0.8676(5)
C36 C -0.4623(8) 0.0712(4) -0.9307(5)
H22 H -0.5030 0.0785 -0.9792
C37 C -0.4161(8) 0.0286(3) -0.9208(5)
H23 H -0.4229 0.0061 -0.9626
C38 C -0.3588(6) 0.0185(3) -0.8490(5)
H24 H -0.3279 -0.0117 -0.8429
C39 C -0.3877(5) 0.0922(2) -0.7970(4)
C40 C -0.3669(5) 0.1261(2) -0.7351(4)
C41 C -0.2399(7) -0.1813(3) -0.7447(5)
H25 H -0.2216 -0.1513 -0.7206
C42 C -0.1792(8) -0.2203(3) -0.7274(6)
H26 H -0.1204 -0.2173 -0.6918
C43 C -0.2073(10) -0.2643(3) -0.7644(8)
H27 H -0.1672 -0.2914 -0.7527
C44 C -0.2900(9) -0.2688(3) -0.8160(7)
C45 C -0.3269(11) -0.3129(3) -0.8592(8)
H28 H -0.2915 -0.3417 -0.8491
C46 C -0.4072(11) -0.3135(4) -0.9111(8)
H29 H -0.4290 -0.3429 -0.9356
C47 C -0.4596(10) -0.2731(4) -0.9305(7)
C48 C -0.5410(11) -0.2706(5) -0.9901(7)
H30 H -0.5605 -0.2978 -1.0220
C49 C -0.5921(10) -0.2293(5) -1.0023(6)
H31 H -0.6482 -0.2282 -1.0414
C50 C -0.5628(8) -0.1887(4) -0.9579(6)
H32 H -0.5996 -0.1604 -0.9677
C51 C -0.4340(8) -0.2291(3) -0.8892(6)
C52 C -0.3459(8) -0.2283(3) -0.8302(6)
C53 C -0.3702(5) -0.0853(2) -0.7463(4)
C54 C -0.3568(7) -0.1043(3) -0.9032(5)
C55 C -0.5345(8) -0.0871(4) -0.8590(5)
C56 C -0.5010(6) -0.1635(3) -0.7466(5)
N1 N 0.1786(4) 0.1729(2) -0.4950(4)
N2 N 0.0130(4) 0.1877(2) -0.5936(4)
N3 N -0.1160(5) 0.0650(2) -0.5951(4)
N4 N -0.0158(6) 0.1443(3) -0.3800(6)
N5 N 0.1408(6) 0.0978(4) -0.6928(5)
N6 N -0.3101(4) 0.0494(2) -0.5169(4)
N7 N -0.4474(4) 0.02749(18) -0.6443(3)
N8 N -0.3333(4) -0.0568(2) -0.7006(3)
N9 N -0.3070(4) 0.1126(2) -0.6676(4)
N10 N -0.3224(5) -0.1849(2) -0.7937(4)
N11 N -0.4851(6) -0.1883(3) -0.9023(4)
N12 N -0.3127(6) -0.0879(3) -0.9479(4)
N13 N -0.5406(5) -0.1833(2) -0.7043(4)
N14 N -0.3440(4) 0.0485(2) -0.7873(3)
N15 N -0.5980(8) -0.0612(4) -0.8802(6)
O1 O -0.1503(5) -0.0013(2) -0.7291(4)
H33 H -0.1876 -0.0189 -0.7570
H34 H -0.1066 -0.0218 -0.7153
N16 N -0.1789(4) -0.0363(2) -0.5504(4)
Nd1B Nd 0.26430(2) -0.020482(13) -0.35266(2)
Ru1B Ru -0.06816(4) -0.12388(2) -0.46438(4)
Ru2B Ru 0.42950(5) 0.13238(2) -0.17614(4)
C1B C -0.2599(5) -0.1660(3) -0.5562(4)
H1B H -0.2739 -0.1348 -0.5769
C2B C -0.3244(6) -0.2024(3) -0.5802(5)
H2B H -0.3811 -0.1958 -0.6168
C3B C -0.3070(6) -0.2473(3) -0.5518(5)
H3B H -0.3512 -0.2722 -0.5688
C4B C -0.2239(6) -0.2572(3) -0.4974(6)
C5B C -0.1984(8) -0.3019(3) -0.4608(6)
H4B H -0.2409 -0.3280 -0.4736
C6B C -0.1186(9) -0.3092(3) -0.4097(7)
H5B H -0.1054 -0.3401 -0.3877
C7B C -0.0509(7) -0.2710(3) -0.3868(7)
C8B C 0.0327(8) -0.2747(4) -0.3308(8)
H6B H 0.0488 -0.3041 -0.3038
C9B C 0.0908(7) -0.2362(4) -0.3151(7)
H7B H 0.1474 -0.2383 -0.2766
C10B C 0.0670(6) -0.1933(3) -0.3559(6)
H8B H 0.1103 -0.1673 -0.3468
C11B C -0.0736(6) -0.2259(3) -0.4223(5)
C12B C -0.1600(5) -0.2188(3) -0.4760(5)
C13B C 0.0450(5) -0.0854(2) -0.4271(5)
C14B C -0.0139(6) -0.1384(3) -0.5633(6)
C15B C -0.1172(6) -0.1072(3) -0.3643(6)
C16B C -0.1349(5) -0.0680(3) -0.5172(5)
C17B C 0.2441(6) -0.0598(3) -0.5466(5)
H9B H 0.1796 -0.0530 -0.5450
C18B C 0.2652(7) -0.0800(3) -0.6148(5)
H10B H 0.2159 -0.0878 -0.6577
C19B C 0.3553(7) -0.0882(3) -0.6190(5)
H11B H 0.3696 -0.1023 -0.6653
C20B C 0.4298(6) -0.0765(2) -0.5570(4)
C21B C 0.5277(6) -0.0817(3) -0.5574(5)
H12B H 0.5462 -0.0947 -0.6029
C22B C 0.5948(6) -0.0692(3) -0.4975(5)
H13B H 0.6595 -0.0723 -0.5017
C23B C 0.5708(5) -0.0510(2) -0.4260(5)
C24B C 0.6404(5) -0.0388(3) -0.3606(5)
H14B H 0.7058 -0.0429 -0.3617
C25B C 0.6120(5) -0.0205(2) -0.2944(5)
H15B H 0.6573 -0.0118 -0.2492
C26B C 0.5147(5) -0.0152(2) -0.2959(4)
H16B H 0.4959 -0.0019 -0.2507
C27B C 0.4750(5) -0.0452(2) -0.4209(4)
C28B C 0.4026(5) -0.0571(2) -0.4873(4)
C29B C 0.2801(5) -0.1454(2) -0.3873(5)
H17B H 0.2383 -0.1361 -0.4343
C30B C 0.3108(6) -0.1937(3) -0.3794(5)
H18B H 0.2878 -0.2165 -0.4192
C31B C 0.3736(6) -0.2067(3) -0.3139(5)
H19B H 0.3971 -0.2385 -0.3082
C32B C 0.4033(5) -0.1729(3) -0.2548(5)
C33B C 0.4705(7) -0.1843(3) -0.1833(5)
H20B H 0.4991 -0.2150 -0.1770
C34B C 0.4921(7) -0.1515(3) -0.1263(6)
H21B H 0.5372 -0.1593 -0.0805
C35B C 0.4492(6) -0.1050(3) -0.1324(5)
C36B C 0.4623(8) -0.0712(4) -0.0693(5)
H22B H 0.5030 -0.0785 -0.0208
C37B C 0.4161(8) -0.0286(3) -0.0792(5)
H23B H 0.4229 -0.0061 -0.0374
C38B C 0.3588(6) -0.0185(3) -0.1510(5)
H24B H 0.3279 0.0117 -0.1571
C39B C 0.3877(5) -0.0922(2) -0.2030(4)
C40B C 0.3669(5) -0.1261(2) -0.2649(4)
C41B C 0.2399(7) 0.1813(3) -0.2553(5)
H25B H 0.2216 0.1513 -0.2794
C42B C 0.1792(8) 0.2203(3) -0.2726(6)
H26B H 0.1204 0.2173 -0.3082
C43B C 0.2073(10) 0.2643(3) -0.2356(8)
H27B H 0.1672 0.2914 -0.2473
C44B C 0.2900(9) 0.2688(3) -0.1840(7)
C45B C 0.3269(11) 0.3129(3) -0.1408(8)
H28B H 0.2915 0.3417 -0.1509
C46B C 0.4072(11) 0.3135(4) -0.0889(8)
H29B H 0.4290 0.3429 -0.0644
C47B C 0.4596(10) 0.2731(4) -0.0695(7)
C48B C 0.5410(11) 0.2706(5) -0.0099(7)
H30B H 0.5605 0.2978 0.0220
C49B C 0.5921(10) 0.2293(5) 0.0023(6)
H31B H 0.6482 0.2282 0.0414
C50B C 0.5628(8) 0.1887(4) -0.0421(6)
H32B H 0.5996 0.1604 -0.0323
C51B C 0.4340(8) 0.2291(3) -0.1108(6)
C52B C 0.3459(8) 0.2283(3) -0.1698(6)
C53B C 0.3702(5) 0.0853(2) -0.2537(4)
C54B C 0.3568(7) 0.1043(3) -0.0968(5)
C55B C 0.5345(8) 0.0871(4) -0.1410(5)
C56B C 0.5010(6) 0.1635(3) -0.2534(5)
N1B N -0.1786(4) -0.1729(2) -0.5050(4)
N2B N -0.0130(4) -0.1877(2) -0.4064(4)
N3B N 0.1160(5) -0.0650(2) -0.4049(4)
N4B N 0.0158(6) -0.1443(3) -0.6200(6)
N5B N -0.1408(6) -0.0978(4) -0.3072(5)
N6B N 0.3101(4) -0.0494(2) -0.4831(4)
N7B N 0.4474(4) -0.02749(18) -0.3557(3)
N8B N 0.3333(4) 0.0568(2) -0.2994(3)
N9B N 0.3070(4) -0.1126(2) -0.3324(4)
N10B N 0.3224(5) 0.1849(2) -0.2063(4)
N11B N 0.4851(6) 0.1883(3) -0.0977(4)
N12B N 0.3127(6) 0.0879(3) -0.0521(4)
N13B N 0.5406(5) 0.1833(2) -0.2957(4)
N14B N 0.3440(4) -0.0485(2) -0.2127(3)
N15B N 0.5980(8) 0.0612(4) -0.1198(6)
O1B O 0.1503(5) 0.0013(2) -0.2709(4)
H33B H 0.1876 0.0189 -0.2430
H34B H 0.1066 0.0218 -0.2847
N16B N 0.1789(4) 0.0363(2) -0.4496(4)
K1 K -0.8683(3) 0.00839(15) -0.9141(2)
O2 O -0.8636(11) 0.0566(6) -1.1503(10)
O3 O -0.8876(11) 0.0009(5) -0.7638(11)
O5 O 0.2146(14) 0.6371(9) -0.3084(11)
O6 O 0.0250(7) 0.5236(3) -0.1216(7)
H35 H 0.0494 0.5166 -0.1611
H36 H -0.0113 0.5007 -0.1145
O7 O -0.2717(6) 0.2063(4) -0.2998(7)
H37 H -0.3314 0.2092 -0.3142
H38 H -0.2717 0.1801 -0.2748
O8 O -0.1917(6) 0.1991(3) -0.4303(5)
H39 H -0.1962 0.2050 -0.3830
H40 H -0.1416 0.1819 -0.4172
O9 O -0.1109(12) 0.2845(6) -0.4436(11)
O11 O -0.0295(11) 0.3951(5) -0.7360(8)
H41 H -0.0738 0.3791 -0.7639
H42 H 0.0074 0.4149 -0.7524
O12 O -0.7276(15) 0.1236(7) -0.8422(9)
K2? K -0.9093(3) -0.00998(18) -0.9972(4)
K3? K -0.9876(4) 0.0100(2) -1.0742(4)
O4? O -0.7152(14) 0.0178(6) -0.9380(11)
O10? O -0.0164(12) 0.2835(6) -0.4063(11)
O13? O -0.8305(15) 0.1181(7) -0.8453(9)
loop_
_geom_bond_atom_site_label_1
_geom_bond_atom_site_label_2
_geom_bond_site_symmetry_1
_geom_bond_site_symmetry_2
Nd1 N3 1_555 1_555
Ru1 C13 1_555 1_555
Ru2 C53 1_555 1_555
C1 H1 1_555 1_555
C2 C1 1_555 1_555
H2 C2 1_555 1_555
C3 C2 1_555 1_555
H3 C3 1_555 1_555
C4 C3 1_555 1_555
C5 C4 1_555 1_555
H4 C5 1_555 1_555
C6 C5 1_555 1_555
H5 C6 1_555 1_555
C7 C6 1_555 1_555
C8 C7 1_555 1_555
H6 C8 1_555 1_555
C9 C8 1_555 1_555
H7 C9 1_555 1_555
C10 C9 1_555 1_555
H8 C10 1_555 1_555
C11 C7 1_555 1_555
C12 C4 1_555 1_555
C13 N3 1_555 1_555
C14 Ru1 1_555 1_555
C15 Ru1 1_555 1_555
C16 Ru1 1_555 1_555
C17 H9 1_555 1_555
C18 C17 1_555 1_555
H10 C18 1_555 1_555
C19 C18 1_555 1_555
H11 C19 1_555 1_555
C20 C19 1_555 1_555
C21 C20 1_555 1_555
H12 C21 1_555 1_555
C22 C21 1_555 1_555
H13 C22 1_555 1_555
C23 C22 1_555 1_555
C24 C23 1_555 1_555
H14 C24 1_555 1_555
C25 C24 1_555 1_555
H15 C25 1_555 1_555
C26 C25 1_555 1_555
H16 C26 1_555 1_555
C27 C23 1_555 1_555
C28 C20 1_555 1_555
C29 H17 1_555 1_555
C30 C29 1_555 1_555
H18 C30 1_555 1_555
C31 C30 1_555 1_555
H19 C31 1_555 1_555
C32 C31 1_555 1_555
C33 C32 1_555 1_555
H20 C33 1_555 1_555
C34 C33 1_555 1_555
H21 C34 1_555 1_555
C35 C34 1_555 1_555
C36 C35 1_555 1_555
H22 C36 1_555 1_555
C37 C36 1_555 1_555
H23 C37 1_555 1_555
C38 C37 1_555 1_555
H24 C38 1_555 1_555
C39 C35 1_555 1_555
C40 C32 1_555 1_555
C41 H25 1_555 1_555
C42 C41 1_555 1_555
H26 C42 1_555 1_555
C43 C42 1_555 1_555
H27 C43 1_555 1_555
C44 C43 1_555 1_555
C45 C44 1_555 1_555
H28 C45 1_555 1_555
C46 C45 1_555 1_555
H29 C46 1_555 1_555
C47 C46 1_555 1_555
C48 C47 1_555 1_555
H30 C48 1_555 1_555
C49 C48 1_555 1_555
H31 C49 1_555 1_555
C50 C49 1_555 1_555
H32 C50 1_555 1_555
C51 C47 1_555 1_555
C52 C44 1_555 1_555
C53 N8 1_555 1_555
C54 Ru2 1_555 1_555
C55 Ru2 1_555 1_555
C56 Ru2 1_555 1_555
N1 Ru1 1_555 1_555
N2 Ru1 1_555 1_555
N4 C14 1_555 1_555
N5 C15 1_555 1_555
N6 Nd1 1_555 1_555
N7 Nd1 1_555 1_555
N8 Nd1 1_555 1_555
N9 Nd1 1_555 1_555
N10 Ru2 1_555 1_555
N11 Ru2 1_555 1_555
N12 C54 1_555 1_555
N13 C56 1_555 1_555
N14 Nd1 1_555 1_555
N15 C55 1_555 1_555
O1 Nd1 1_555 1_555
H33 O1 1_555 1_555
H34 O1 1_555 1_555
O6 H35 1_555 1_555
H36 O6 1_555 1_555
O7 H37 1_555 1_555
H38 O7 1_555 1_555
O8 H39 1_555 1_555
H40 O8 1_555 1_555
O11 H41 1_555 1_555
H42 O11 1_555 1_555
N16 Nd1 1_555 1_555
Nd1B N3B 1_555 1_555
Ru1B C13B 1_555 1_555
Ru2B C53B 1_555 1_555
C1B H1B 1_555 1_555
C2B C1B 1_555 1_555
H2B C2B 1_555 1_555
C3B C2B 1_555 1_555
H3B C3B 1_555 1_555
C4B C3B 1_555 1_555
C5B C4B 1_555 1_555
H4B C5B 1_555 1_555
C6B C5B 1_555 1_555
H5B C6B 1_555 1_555
C7B C6B 1_555 1_555
C8B C7B 1_555 1_555
H6B C8B 1_555 1_555
C9B C8B 1_555 1_555
H7B C9B 1_555 1_555
C10B C9B 1_555 1_555
H8B C10B 1_555 1_555
C11B C7B 1_555 1_555
C12B C4B 1_555 1_555
C13B N3B 1_555 1_555
C14B Ru1B 1_555 1_555
C15B Ru1B 1_555 1_555
C16B N16 1_555 1_555
C17B H9B 1_555 1_555
C18B C17B 1_555 1_555
H10B C18B 1_555 1_555
C19B C18B 1_555 1_555
H11B C19B 1_555 1_555
C20B C19B 1_555 1_555
C21B C20B 1_555 1_555
H12B C21B 1_555 1_555
C22B C21B 1_555 1_555
H13B C22B 1_555 1_555
C23B C22B 1_555 1_555
C24B C23B 1_555 1_555
H14B C24B 1_555 1_555
C25B C24B 1_555 1_555
H15B C25B 1_555 1_555
C26B C25B 1_555 1_555
H16B C26B 1_555 1_555
C27B C23B 1_555 1_555
C28B C20B 1_555 1_555
C29B H17B 1_555 1_555
C30B C29B 1_555 1_555
H18B C30B 1_555 1_555
C31B C30B 1_555 1_555
H19B C31B 1_555 1_555
C32B C31B 1_555 1_555
C33B C32B 1_555 1_555
H20B C33B 1_555 1_555
C34B C33B 1_555 1_555
H21B C34B 1_555 1_555
C35B C34B 1_555 1_555
C36B C35B 1_555 1_555
H22B C36B 1_555 1_555
C37B C36B 1_555 1_555
H23B C37B 1_555 1_555
C38B C37B 1_555 1_555
H24B C38B 1_555 1_555
C39B C35B 1_555 1_555
C40B C32B 1_555 1_555
C41B H25B 1_555 1_555
C42B C41B 1_555 1_555
H26B C42B 1_555 1_555
C43B C42B 1_555 1_555
H27B C43B 1_555 1_555
C44B C43B 1_555 1_555
C45B C44B 1_555 1_555
H28B C45B 1_555 1_555
C46B C45B 1_555 1_555
H29B C46B 1_555 1_555
C47B C46B 1_555 1_555
C48B C47B 1_555 1_555
H30B C48B 1_555 1_555
C49B C48B 1_555 1_555
H31B C49B 1_555 1_555
C50B C49B 1_555 1_555
H32B C50B 1_555 1_555
C51B C47B 1_555 1_555
C52B C44B 1_555 1_555
C53B N8B 1_555 1_555
C54B Ru2B 1_555 1_555
C55B Ru2B 1_555 1_555
C56B Ru2B 1_555 1_555
N1B Ru1B 1_555 1_555
N2B Ru1B 1_555 1_555
N4B C14B 1_555 1_555
N5B C15B 1_555 1_555
N6B Nd1B 1_555 1_555
N7B Nd1B 1_555 1_555
N8B Nd1B 1_555 1_555
N9B Nd1B 1_555 1_555
N10B Ru2B 1_555 1_555
N11B Ru2B 1_555 1_555
N12B C54B 1_555 1_555
N13B C56B 1_555 1_555
N14B Nd1B 1_555 1_555
N15B C55B 1_555 1_555
O1B Nd1B 1_555 1_555
H33B O1B 1_555 1_555
H34B O1B 1_555 1_555
N16B C16 1_555 1_555
C1 N1 1_555 1_555
C10 N2 1_555 1_555
C11 C12 1_555 1_555
C11 N2 1_555 1_555
C12 N1 1_555 1_555
C17 N6 1_555 1_555
C26 N7 1_555 1_555
C27 C28 1_555 1_555
C27 N7 1_555 1_555
C28 N6 1_555 1_555
C29 N9 1_555 1_555
C38 N14 1_555 1_555
C39 C40 1_555 1_555
C39 N14 1_555 1_555
C40 N9 1_555 1_555
C41 N10 1_555 1_555
C50 N11 1_555 1_555
C51 C52 1_555 1_555
C51 N11 1_555 1_555
C52 N10 1_555 1_555
Nd1B N16B 1_555 1_555
Ru1B C16B 1_555 1_555
C1B N1B 1_555 1_555
C10B N2B 1_555 1_555
C11B C12B 1_555 1_555
C11B N2B 1_555 1_555
C12B N1B 1_555 1_555
C17B N6B 1_555 1_555
C26B N7B 1_555 1_555
C27B C28B 1_555 1_555
C27B N7B 1_555 1_555
C28B N6B 1_555 1_555
C29B N9B 1_555 1_555
C38B N14B 1_555 1_555
C39B C40B 1_555 1_555
C39B N14B 1_555 1_555
C40B N9B 1_555 1_555
C41B N10B 1_555 1_555
C50B N11B 1_555 1_555
C51B C52B 1_555 1_555
C51B N11B 1_555 1_555
C52B N10B 1_555 1_555

#END
