
#######################################################################
#
#                 Cambridge Crystallographic Data Centre
#                                CCDC 
#
#######################################################################
#
# If this CIF has been generated from an entry in the Cambridge 
# Structural Database, then it will include bibliographic, chemical, 
# crystal, experimental, refinement or atomic coordinate data resulting 
# from the CCDC's data processing and validation procedures.
#
#######################################################################

data_VATYIA
_chemical_formula_moiety         'C44 H28 Ag2 N4 O8 2+,2(N1 O3 1-)'
_chemical_name_systematic        
'bis(\m~2~-2,3-bis(Picolinoyloxy)naphthalene)-di-silver(i) dinitrate'
_symmetry_cell_setting           monoclinic
_symmetry_space_group_name_H-M   'C 2/c'
_symmetry_Int_Tables_number      15
_space_group_name_Hall           '-C 2yn'
loop_
_symmetry_equiv_pos_site_id
_symmetry_equiv_pos_as_xyz
1 x,y,z
2 -x,y,1/2-z
3 1/2+x,1/2+y,z
4 1/2-x,1/2+y,1/2-z
5 -x,-y,-z
6 x,-y,1/2+z
7 1/2-x,1/2-y,-z
8 1/2+x,1/2-y,1/2+z
_cell_length_a                   20.5988(4)
_cell_length_b                   12.9627(3)
_cell_length_c                   16.0609(3)
_cell_angle_alpha                90
_cell_angle_beta                 97.7770(10)
_cell_angle_gamma                90
_cell_volume                     4249.07
_exptl_crystal_colour            colorless
_exptl_crystal_description       block
_cell_formula_units_Z            4
loop_
_atom_site_label
_atom_site_type_symbol
_atom_site_fract_x
_atom_site_fract_y
_atom_site_fract_z
N4 N 0.2642(4) -0.2553(9) 0.9876(8)
O8 O 0.2960(4) -0.2260(5) 0.9367(5)
O9 O 0.2825(6) -0.2524(11) 1.0572(7)
O10 O 0.2118(4) -0.3020(7) 0.9615(11)
N4F N 0.2358(4) -0.2447(9) 1.0124(8)
O8F O 0.2040(4) -0.2740(5) 1.0633(5)
O9F O 0.2175(6) -0.2476(11) 0.9428(7)
O10F O 0.2882(4) -0.1980(7) 1.0385(11)
Ag1 Ag -0.070352(14) 0.18158(2) 0.896649(19)
O1 O 0.05833(11) 0.14929(18) 0.93982(17)
O2 O 0.13966(10) 0.26330(15) 0.96422(14)
O3 O 0.18720(10) 0.10263(16) 1.05967(14)
O4 O 0.13674(12) -0.04935(19) 1.03171(15)
N1 N -0.02649(13) 0.2906(2) 0.99411(19)
N2 N -0.09951(11) 0.0495(2) 0.81060(17)
C1 C 0.03938(16) 0.3043(2) 1.0097(2)
C2 C 0.06850(18) 0.3750(3) 1.0661(3)
H1 H 0.1139 0.3816 1.0754
C3 C 0.0289(2) 0.4371(4) 1.1094(3)
H2 H 0.0474 0.4860 1.1479
C4 C -0.0365(2) 0.4248(4) 1.0943(3)
H3 H -0.0639 0.4653 1.1225
C5 C -0.06256(19) 0.3523(4) 1.0373(3)
H4 H -0.1079 0.3453 1.0278
C6 C 0.07788(16) 0.2310(3) 0.9669(2)
C7 C 0.18103(14) 0.1931(2) 0.9298(2)
C8 C 0.20501(15) 0.1080(2) 0.9787(2)
C9 C 0.24477(15) 0.0383(2) 0.9477(2)
H5 H 0.2604 -0.0180 0.9803
C10 C 0.26244(14) 0.0508(2) 0.8668(2)
C11 C 0.30274(16) -0.0209(3) 0.8320(3)
H6 H 0.3176 -0.0789 0.8628
C12 C 0.31999(17) -0.0069(3) 0.7552(3)
H7 H 0.3474 -0.0544 0.7341
C13 C 0.29699(18) 0.0788(4) 0.7064(3)
H8 H 0.3088 0.0878 0.6530
C14 C 0.25756(17) 0.1479(3) 0.7376(2)
H9 H 0.2420 0.2042 0.7048
C15 C 0.23929(14) 0.1366(3) 0.8193(2)
C16 C 0.19797(14) 0.2083(2) 0.8531(2)
H10 H 0.1826 0.2660 0.8221
C17 C 0.15090(16) 0.0209(3) 1.0789(2)
C18 C -0.13200(15) -0.0319(2) 0.8365(2)
C19 C -0.14702(18) -0.1168(3) 0.7865(2)
H11 H -0.1699 -0.1714 0.8064
C20 C -0.12875(19) -0.1218(3) 0.7079(2)
H12 H -0.1388 -0.1792 0.6737
C21 C -0.09521(17) -0.0397(3) 0.6809(2)
H13 H -0.0817 -0.0401 0.6280
C22 C -0.08202(15) 0.0432(3) 0.7337(2)
H14 H -0.0594 0.0986 0.7146
Ag1D Ag 0.070352(14) -0.18158(2) 1.103351(19)
O1D O -0.05833(11) -0.14929(18) 1.06018(17)
O2D O -0.13966(10) -0.26330(15) 1.03578(14)
O3D O -0.18720(10) -0.10263(16) 0.94033(14)
O4D O -0.13674(12) 0.04935(19) 0.96829(15)
N1D N 0.02649(13) -0.2906(2) 1.00589(19)
N2D N 0.09951(11) -0.0495(2) 1.18940(17)
C1D C -0.03938(16) -0.3043(2) 0.9903(2)
C2D C -0.06850(18) -0.3750(3) 0.9339(3)
H1D H -0.1139 -0.3816 0.9246
C3D C -0.0289(2) -0.4371(4) 0.8906(3)
H2D H -0.0474 -0.4860 0.8521
C4D C 0.0365(2) -0.4248(4) 0.9057(3)
H3D H 0.0639 -0.4653 0.8775
C5D C 0.06256(19) -0.3523(4) 0.9627(3)
H4D H 0.1079 -0.3453 0.9722
C6D C -0.07788(16) -0.2310(3) 1.0331(2)
C7D C -0.18103(14) -0.1931(2) 1.0702(2)
C8D C -0.20501(15) -0.1080(2) 1.0213(2)
C9D C -0.24477(15) -0.0383(2) 1.0523(2)
H5D H -0.2604 0.0180 1.0197
C10D C -0.26244(14) -0.0508(2) 1.1332(2)
C11D C -0.30274(16) 0.0209(3) 1.1680(3)
H6D H -0.3176 0.0789 1.1372
C12D C -0.31999(17) 0.0069(3) 1.2448(3)
H7D H -0.3474 0.0544 1.2659
C13D C -0.29699(18) -0.0788(4) 1.2936(3)
H8D H -0.3088 -0.0878 1.3470
C14D C -0.25756(17) -0.1479(3) 1.2624(2)
H9D H -0.2420 -0.2042 1.2952
C15D C -0.23929(14) -0.1366(3) 1.1807(2)
C16D C -0.19797(14) -0.2083(2) 1.1469(2)
H10D H -0.1826 -0.2660 1.1779
C17D C -0.15090(16) -0.0209(3) 0.9211(2)
C18D C 0.13200(15) 0.0319(2) 1.1635(2)
C19D C 0.14702(18) 0.1168(3) 1.2135(2)
H11D H 0.1699 0.1714 1.1936
C20D C 0.12875(19) 0.1218(3) 1.2921(2)
H12D H 0.1388 0.1792 1.3263
C21D C 0.09521(17) 0.0397(3) 1.3191(2)
H13D H 0.0817 0.0401 1.3720
C22D C 0.08202(15) -0.0432(3) 1.2663(2)
H14D H 0.0594 -0.0986 1.2854
N3? N 0.0000 0.3251(5) 0.7500
O5? O -0.0348(3) 0.3696(8) 0.6893(5)
O6? O 0.05879(15) 0.3145(5) 0.7361(5)
O7? O -0.0270(5) 0.2936(12) 0.8124(7)
loop_
_geom_bond_atom_site_label_1
_geom_bond_atom_site_label_2
_geom_bond_site_symmetry_1
_geom_bond_site_symmetry_2
Ag1 N1 1_555 1_555
O1 C6 1_555 1_555
O2 C6 1_555 1_555
O3 C8 1_555 1_555
O4 C17 1_555 1_555
N1 C1 1_555 1_555
N2 Ag1 1_555 1_555
C1 C2 1_555 1_555
C2 H1 1_555 1_555
C3 C2 1_555 1_555
H2 C3 1_555 1_555
C4 C3 1_555 1_555
H3 C4 1_555 1_555
C5 N1 1_555 1_555
H4 C5 1_555 1_555
C6 C1 1_555 1_555
C7 O2 1_555 1_555
C8 C7 1_555 1_555
C9 C8 1_555 1_555
H5 C9 1_555 1_555
C10 C9 1_555 1_555
C11 C10 1_555 1_555
H6 C11 1_555 1_555
C12 C11 1_555 1_555
H7 C12 1_555 1_555
C13 C12 1_555 1_555
H8 C13 1_555 1_555
C14 C13 1_555 1_555
H9 C14 1_555 1_555
C15 C10 1_555 1_555
C16 C7 1_555 1_555
H10 C16 1_555 1_555
C17 O3 1_555 1_555
C18 N2 1_555 1_555
C19 C18 1_555 1_555
H11 C19 1_555 1_555
C20 C19 1_555 1_555
H12 C20 1_555 1_555
C21 C20 1_555 1_555
H13 C21 1_555 1_555
C22 N2 1_555 1_555
H14 C22 1_555 1_555
N4 O8 1_555 1_555
O8 O9F 1_555 1_555
O9 N4 1_555 1_555
O10 N4 1_555 1_555
Ag1D N1D 1_555 1_555
O1D C6D 1_555 1_555
O2D C6D 1_555 1_555
O3D C8D 1_555 1_555
O4D C17D 1_555 1_555
N1D C1D 1_555 1_555
N2D Ag1D 1_555 1_555
C1D C2D 1_555 1_555
C2D H1D 1_555 1_555
C3D C2D 1_555 1_555
H2D C3D 1_555 1_555
C4D C3D 1_555 1_555
H3D C4D 1_555 1_555
C5D N1D 1_555 1_555
H4D C5D 1_555 1_555
C6D C1D 1_555 1_555
C7D O2D 1_555 1_555
C8D C7D 1_555 1_555
C9D C8D 1_555 1_555
H5D C9D 1_555 1_555
C10D C9D 1_555 1_555
C11D C10D 1_555 1_555
H6D C11D 1_555 1_555
C12D C11D 1_555 1_555
H7D C12D 1_555 1_555
C13D C12D 1_555 1_555
H8D C13D 1_555 1_555
C14D C13D 1_555 1_555
H9D C14D 1_555 1_555
C15D C10D 1_555 1_555
C16D C7D 1_555 1_555
H10D C16D 1_555 1_555
C17D C18 1_555 1_555
C18D C17 1_555 1_555
C19D C18D 1_555 1_555
H11D C19D 1_555 1_555
C20D C19D 1_555 1_555
H12D C20D 1_555 1_555
C21D C20D 1_555 1_555
H13D C21D 1_555 1_555
C22D N2D 1_555 1_555
H14D C22D 1_555 1_555
N4F N4 1_555 1_555
O8F O9 1_555 1_555
O9F N4 1_555 1_555
O10F N4 1_555 1_555
C4 C5 1_555 1_555
C14 C15 1_555 1_555
C15 C16 1_555 1_555
C21 C22 1_555 1_555
O8 O10F 1_555 1_555
O9 N4F 1_555 1_555
O9 O10F 1_555 1_555
O10 N4F 1_555 1_555
O10 O8F 1_555 1_555
O10 O9F 1_555 1_555
O3D C17D 1_555 1_555
N2D C18D 1_555 1_555
C4D C5D 1_555 1_555
C14D C15D 1_555 1_555
C15D C16D 1_555 1_555
C21D C22D 1_555 1_555
N4F O8F 1_555 1_555
N4F O9F 1_555 1_555
N4F O10F 1_555 1_555

#END
