
#######################################################################
#
#                 Cambridge Crystallographic Data Centre
#                                CCDC 
#
#######################################################################
#
# If this CIF has been generated from an entry in the Cambridge 
# Structural Database, then it will include bibliographic, chemical, 
# crystal, experimental, refinement or atomic coordinate data resulting 
# from the CCDC's data processing and validation procedures.
#
#######################################################################

data_VIPFIL
_chemical_formula_moiety         'C63 H63 Cl6 N9 O9 Pd3,C60 H60 Cl6 N12 O6 Pd3'
_chemical_name_systematic        
"(M)-(\m~3~-N,N',N''-tris(2-(pyridin-2-yl)propyl)benzene-1,3,5-tricarboxamide)-(\m~3~-N,N',N''-tris(2-(pyridin-2-yl)ethyl)benzene-1,3,5-tricarboxamide)-tris(dichloro-palladium) (P)-bis(\m~3~-N,N',N''-tris(2-(pyridin-2-yl)ethyl)benzene-1,3,5-tricarboxamide)-tris(dichloro-palladium)"
_symmetry_cell_setting           rhombohedral
_symmetry_space_group_name_H-M   'R 3'
_symmetry_Int_Tables_number      146
_space_group_name_Hall           'R 3'
loop_
_symmetry_equiv_pos_site_id
_symmetry_equiv_pos_as_xyz
1 x,y,z
2 -y,x-y,z
3 -x+y,-x,z
4 2/3+x,1/3+y,1/3+z
5 2/3-y,1/3+x-y,1/3+z
6 2/3-x+y,1/3-x,1/3+z
7 1/3+x,2/3+y,2/3+z
8 1/3-y,2/3+x-y,2/3+z
9 1/3-x+y,2/3-x,2/3+z
_cell_length_a                   26.2694(6)
_cell_length_b                   26.2694(6)
_cell_length_c                   21.5286(10)
_cell_angle_alpha                90
_cell_angle_beta                 90
_cell_angle_gamma                120
_cell_volume                     12866.1
_exptl_crystal_colour            yellow
_exptl_crystal_description       BLOCK
_cell_formula_units_Z            3
loop_
_atom_site_label
_atom_site_type_symbol
_atom_site_fract_x
_atom_site_fract_y
_atom_site_fract_z
Pd1 Pd -0.85245(6) -0.66098(6) -0.3032(3)
Cl1 Cl -0.8548(2) -0.6670(3) -0.4073(4)
Cl2 Cl -0.8525(2) -0.6593(3) -0.1984(4)
O1 O -0.8209(5) -0.4112(5) -0.3386(6)
O2 O -0.7494(6) -0.4860(5) -0.1761(7)
N1 N -0.9315(5) -0.6622(6) -0.2982(9)
N2 N -0.8008(6) -0.4749(6) -0.3842(9)
H1 H -0.7751 -0.4768 -0.4090
N3 N -0.7817(4) -0.6763(5) -0.3029(6)
N4 N -0.6770(7) -0.4782(6) -0.2425(8)
H2 H -0.6478 -0.4528 -0.2659
C1 C -0.9809(7) -0.7136(6) -0.3037(8)
H3 H -0.9800 -0.7492 -0.3066
C2 C -1.0329(7) -0.7140(6) -0.3052(10)
H4 H -1.0681 -0.7499 -0.3133
C3 C -1.0357(5) -0.6644(7) -0.2953(9)
H5 H -1.0721 -0.6659 -0.2877
C4 C -0.9842(6) -0.6124(6) -0.2969(8)
H6 H -0.9845 -0.5764 -0.2985
C5 C -0.9322(6) -0.6119(6) -0.2961(10)
C6 C -0.8678(9) -0.5457(9) -0.3016(7)
H7 H -0.8725 -0.5141 -0.2821
H8 H -0.8356 -0.5478 -0.2801
C7 C -0.8536(13) -0.5329(11) -0.3707(9)
H9 H -0.8477 -0.5642 -0.3887
H10 H -0.8880 -0.5346 -0.3918
C8 C -0.7860(5) -0.4231(5) -0.3663(6)
C9 C -0.7252(4) -0.3786(4) -0.3682(6)
C10 C -0.7150(6) -0.3221(4) -0.3699(7)
H11 H -0.7464 -0.3140 -0.3722
C11 C -0.7941(5) -0.7321(4) -0.3020(8)
H12 H -0.8329 -0.7648 -0.3000
C12 C -0.7449(5) -0.7368(5) -0.3041(8)
H13 H -0.7513 -0.7758 -0.3041
C13 C -0.6877(5) -0.6932(6) -0.3062(11)
H14 H -0.6566 -0.7017 -0.3072
C14 C -0.6771(5) -0.6370(5) -0.3070(10)
H15 H -0.6386 -0.6038 -0.3081
C15 C -0.7264(5) -0.6323(4) -0.3061(7)
C16 C -0.7089(7) -0.5627(6) -0.3079(8)
H16 H -0.6760 -0.5409 -0.3374
H17 H -0.7430 -0.5596 -0.3224
C17 C -0.6911(9) -0.5365(7) -0.2444(10)
H18 H -0.7237 -0.5595 -0.2151
H19 H -0.6567 -0.5394 -0.2306
C18 C -0.7071(7) -0.4571(4) -0.2050(11)
C19 C -0.6839(4) -0.3940(4) -0.2118(7)
C20 C -0.6248(4) -0.3545(5) -0.2147(7)
H20 H -0.5968 -0.3672 -0.2183
O1A O -0.5888(5) -0.4097(7) -0.3386(6)
N1A N -0.3378(6) -0.2693(8) -0.2982(9)
N2A N -0.5251(6) -0.3259(8) -0.3842(9)
H1A H -0.5232 -0.2983 -0.4090
C1A C -0.2864(6) -0.2673(9) -0.3037(8)
H3A H -0.2508 -0.2308 -0.3066
C2A C -0.2860(6) -0.3189(9) -0.3052(10)
H4A H -0.2501 -0.3182 -0.3133
C3A C -0.3356(7) -0.3713(9) -0.2953(9)
H5A H -0.3341 -0.4062 -0.2877
C4A C -0.3876(6) -0.3718(8) -0.2969(8)
H6A H -0.4236 -0.4081 -0.2985
C5A C -0.3881(6) -0.3203(8) -0.2961(10)
C6A C -0.4543(9) -0.3221(13) -0.3016(7)
H7A H -0.4859 -0.3584 -0.2821
H8A H -0.4522 -0.2878 -0.2801
C7A C -0.4671(11) -0.3207(17) -0.3707(9)
H9A H -0.4358 -0.2835 -0.3887
H10A H -0.4654 -0.3534 -0.3918
C8A C -0.5769(5) -0.3629(7) -0.3663(6)
C9A C -0.6214(4) -0.3466(6) -0.3682(6)
C10A C -0.6779(4) -0.3929(7) -0.3699(7)
H11A H -0.6860 -0.4324 -0.3722
O1B O -0.5903(7) -0.1791(5) -0.3386(6)
N1B N -0.7307(8) -0.0685(5) -0.2982(9)
N2B N -0.6741(8) -0.1992(6) -0.3842(9)
H1B H -0.7017 -0.2249 -0.4090
C1B C -0.7327(9) -0.0191(7) -0.3037(8)
H3B H -0.7692 -0.0200 -0.3066
C2B C -0.6811(9) 0.0329(7) -0.3052(10)
H4B H -0.6818 0.0681 -0.3133
C3B C -0.6287(9) 0.0357(5) -0.2953(9)
H5B H -0.5938 0.0721 -0.2877
C4B C -0.6282(8) -0.0158(6) -0.2969(8)
H6B H -0.5919 -0.0155 -0.2985
C5B C -0.6797(8) -0.0678(6) -0.2961(10)
C6B C -0.6779(13) -0.1322(9) -0.3016(7)
H7B H -0.6416 -0.1275 -0.2821
H8B H -0.7122 -0.1644 -0.2801
C7B C -0.6793(17) -0.1464(13) -0.3707(9)
H9B H -0.7165 -0.1523 -0.3887
H10B H -0.6466 -0.1120 -0.3918
C8B C -0.6371(7) -0.2140(5) -0.3663(6)
C9B C -0.6534(6) -0.2748(4) -0.3682(6)
C10B C -0.6071(7) -0.2850(6) -0.3699(7)
H11B H -0.5676 -0.2536 -0.3722
O2A O -0.5140(5) -0.2634(8) -0.1761(7)
N3A N -0.3237(5) -0.1054(6) -0.3029(6)
N4A N -0.5218(6) -0.1988(9) -0.2425(8)
H2A H -0.5472 -0.1950 -0.2659
C11A C -0.2679(4) -0.0620(6) -0.3020(8)
H12A H -0.2352 -0.0681 -0.3000
C12A C -0.2632(5) -0.0081(7) -0.3041(8)
H13A H -0.2242 0.0245 -0.3041
C13A C -0.3068(6) 0.0055(8) -0.3062(11)
H14A H -0.2983 0.0451 -0.3072
C14A C -0.3630(5) -0.0401(7) -0.3070(10)
H15A H -0.3962 -0.0348 -0.3081
C15A C -0.3677(4) -0.0941(6) -0.3061(7)
C16A C -0.4373(6) -0.1462(9) -0.3079(8)
H16A H -0.4591 -0.1351 -0.3374
H17A H -0.4404 -0.1834 -0.3224
C17A C -0.4635(7) -0.1546(11) -0.2444(10)
H18A H -0.4405 -0.1642 -0.2151
H19A H -0.4606 -0.1173 -0.2306
C18A C -0.5429(4) -0.2500(8) -0.2050(11)
C19A C -0.6060(4) -0.2899(6) -0.2118(7)
C20A C -0.6455(5) -0.2703(6) -0.2147(7)
H20A H -0.6328 -0.2296 -0.2183
O2B O -0.7366(8) -0.2506(6) -0.1761(7)
N3B N -0.8946(6) -0.2183(4) -0.3029(6)
N4B N -0.8012(9) -0.3230(7) -0.2425(8)
H2B H -0.8050 -0.3522 -0.2659
C11B C -0.9380(6) -0.2059(5) -0.3020(8)
H12B H -0.9319 -0.1671 -0.3000
C12B C -0.9919(7) -0.2551(5) -0.3041(8)
H13B H -1.0245 -0.2487 -0.3041
C13B C -1.0055(8) -0.3123(5) -0.3062(11)
H14B H -1.0451 -0.3434 -0.3072
C14B C -0.9599(7) -0.3229(5) -0.3070(10)
H15B H -0.9652 -0.3614 -0.3081
C15B C -0.9059(6) -0.2736(5) -0.3061(7)
C16B C -0.8538(9) -0.2911(7) -0.3079(8)
H16B H -0.8649 -0.3240 -0.3374
H17B H -0.8166 -0.2570 -0.3224
C17B C -0.8454(11) -0.3089(9) -0.2444(10)
H18B H -0.8358 -0.2763 -0.2151
H19B H -0.8827 -0.3433 -0.2306
C18B C -0.7500(8) -0.2929(7) -0.2050(11)
C19B C -0.7101(6) -0.3161(4) -0.2118(7)
C20B C -0.7297(6) -0.3752(4) -0.2147(7)
H20B H -0.7704 -0.4032 -0.2183
Pd1A Pd -0.33902(6) -0.19147(8) -0.3032(3)
Cl1A Cl -0.3330(3) -0.1878(4) -0.4073(4)
Cl2A Cl -0.3407(3) -0.1932(4) -0.1984(4)
Pd1B Pd -0.80853(8) -0.14755(6) -0.3032(3)
Cl1B Cl -0.8122(4) -0.1452(2) -0.4073(4)
Cl2B Cl -0.8068(4) -0.1475(2) -0.1984(4)
Pd2 Pd -0.52043(5) -0.49930(5) -0.1291(3)
Cl3 Cl -0.5037(2) -0.51454(19) -0.0274(4)
Cl4 Cl -0.5354(2) -0.4922(3) -0.2331(4)
O3 O -0.5947(4) -0.4177(4) -0.0237(6)
O4 O -0.7232(6) -0.4875(5) 0.0770(9)
O5 O -0.7994(11) -0.4808(9) 0.1229(13)
N5 N -0.4355(4) -0.4339(4) -0.1415(7)
N6 N -0.5283(5) -0.3338(6) -0.0731(7)
H21 H -0.5199 -0.2997 -0.0891
N7 N -0.6066(4) -0.5586(5) -0.1189(7)
C21 C -0.3951(5) -0.4494(5) -0.1327(8)
H22 H -0.4065 -0.4899 -0.1323
C22 C -0.3376(5) -0.4082(5) -0.1241(9)
H23 H -0.3094 -0.4198 -0.1153
C23 C -0.3209(4) -0.3503(5) -0.1282(10)
H24 H -0.2806 -0.3206 -0.1276
C24 C -0.3643(6) -0.3367(5) -0.1333(7)
H25 H -0.3538 -0.2964 -0.1321
C25 C -0.4220(6) -0.3779(5) -0.1400(13)
C26 C -0.4658(10) -0.3602(8) -0.1372(9)
H26 H -0.5007 -0.3884 -0.1613
H27 H -0.4499 -0.3210 -0.1567
C27 C -0.4834(9) -0.3577(9) -0.0737(11)
H28 H -0.4483 -0.3314 -0.0487
H29 H -0.5022 -0.3974 -0.0550
C28 C -0.5815(7) -0.3713(6) -0.0452(10)
C29 C -0.6237(4) -0.3496(4) -0.0487(8)
C30 C -0.6069(5) -0.2913(5) -0.0539(6)
H30 H -0.5669 -0.2627 -0.0608
C31 C -0.6270(5) -0.6092(6) -0.1494(7)
H31 H -0.6025 -0.6185 -0.1736
C32 C -0.6858(5) -0.6463(7) -0.1430(8)
H32 H -0.7020 -0.6830 -0.1640
C33 C -0.7235(4) -0.6361(5) -0.1092(7)
H33 H -0.7644 -0.6637 -0.1081
C34 C -0.7001(5) -0.5846(6) -0.0773(9)
C35 C -0.6424(6) -0.5455(6) -0.0881(12)
H34 H -0.6268 -0.5066 -0.0728
C36 C -0.7356(9) -0.5631(9) -0.0463(9)
H35 H -0.7779 -0.5891 -0.0553
H36 H -0.7238 -0.5228 -0.0602
C37 C -0.7237(17) -0.564(2) 0.0208(9)
H37 H -0.7289 -0.6030 0.0311
H38 H -0.6820 -0.5344 0.0286
C38 C -0.7606(11) -0.5519(6) 0.0635(14)
H39 H -0.7694 -0.5755 0.1019
H40 H -0.7980 -0.5606 0.0433
C39 C -0.7436(7) -0.4609(6) 0.0994(9)
C40 C -0.7062(5) -0.3966(6) 0.1027(10)
C41 C -0.7282(6) -0.3572(5) 0.1069(8)
H41 H -0.7693 -0.3729 0.1127
O3A O -0.5823(4) -0.1770(6) -0.0237(6)
N5A N -0.5661(4) -0.0016(6) -0.1415(7)
N6A N -0.6662(6) -0.1945(8) -0.0731(7)
H21A H -0.7003 -0.2202 -0.0891
C21A C -0.5506(5) 0.0543(7) -0.1327(8)
H22A H -0.5101 0.0834 -0.1323
C22A C -0.5918(5) 0.0706(7) -0.1241(9)
H23A H -0.5802 0.1104 -0.1153
C23A C -0.6497(5) 0.0294(6) -0.1282(10)
H24A H -0.6794 0.0400 -0.1276
C24A C -0.6633(5) -0.0276(8) -0.1333(7)
H25A H -0.7036 -0.0574 -0.1321
C25A C -0.6221(5) -0.0441(8) -0.1400(13)
C26A C -0.6398(8) -0.1056(13) -0.1372(9)
H26A H -0.6116 -0.1123 -0.1613
H27A H -0.6790 -0.1289 -0.1567
C27A C -0.6423(9) -0.1257(13) -0.0737(11)
H28A H -0.6686 -0.1169 -0.0487
H29A H -0.6026 -0.1048 -0.0550
C28A C -0.6287(6) -0.2102(9) -0.0452(10)
C29A C -0.6504(4) -0.2741(6) -0.0487(8)
C30A C -0.7087(5) -0.3156(7) -0.0539(6)
H30A H -0.7373 -0.3042 -0.0608
O3B O -0.8230(6) -0.4053(4) -0.0237(6)
N5B N -0.9984(6) -0.5645(4) -0.1415(7)
N6B N -0.8055(8) -0.4717(5) -0.0731(7)
H21B H -0.7798 -0.4801 -0.0891
C21B C -1.0543(7) -0.6049(5) -0.1327(8)
H22B H -1.0834 -0.5935 -0.1323
C22B C -1.0706(7) -0.6624(5) -0.1241(9)
H23B H -1.1104 -0.6906 -0.1153
C23B C -1.0294(6) -0.6791(4) -0.1282(10)
H24B H -1.0400 -0.7194 -0.1276
C24B C -0.9724(8) -0.6357(6) -0.1333(7)
H25B H -0.9426 -0.6462 -0.1321
C25B C -0.9559(8) -0.5780(6) -0.1400(13)
C26B C -0.8944(13) -0.5342(10) -0.1372(9)
H26B H -0.8877 -0.4993 -0.1613
H27B H -0.8711 -0.5501 -0.1567
C27B C -0.8743(13) -0.5166(9) -0.0737(11)
H28B H -0.8831 -0.5517 -0.0487
H29B H -0.8952 -0.4978 -0.0550
C28B C -0.7898(9) -0.4185(7) -0.0452(10)
C29B C -0.7259(6) -0.3763(4) -0.0487(8)
C30B C -0.6844(7) -0.3931(5) -0.0539(6)
H30B H -0.6958 -0.4331 -0.0608
O4A O -0.5125(5) -0.2357(8) 0.0770(9)
O5A O -0.5192(9) -0.3186(14) 0.1229(13)
N7A N -0.4414(5) -0.0480(6) -0.1189(7)
C31A C -0.3908(6) -0.0178(8) -0.1494(7)
H31A H -0.3815 0.0160 -0.1736
C32A C -0.3537(7) -0.0395(9) -0.1430(8)
H32A H -0.3170 -0.0190 -0.1640
C33A C -0.3639(5) -0.0874(6) -0.1092(7)
H33A H -0.3363 -0.1007 -0.1081
C34A C -0.4154(6) -0.1155(8) -0.0773(9)
C35A C -0.4545(6) -0.0969(8) -0.0881(12)
H34A H -0.4934 -0.1202 -0.0728
C36A C -0.4369(9) -0.1725(13) -0.0463(9)
H35A H -0.4109 -0.1888 -0.0553
H36A H -0.4772 -0.2010 -0.0602
C37A C -0.436(2) -0.1597(26) 0.0208(9)
H37A H -0.3970 -0.1259 0.0311
H38A H -0.4656 -0.1476 0.0286
C38A C -0.4481(6) -0.2087(13) 0.0635(14)
H39A H -0.4245 -0.1939 0.1019
H40A H -0.4394 -0.2374 0.0433
C39A C -0.5391(6) -0.2827(9) 0.0994(9)
C40A C -0.6034(6) -0.3096(8) 0.1027(10)
C41A C -0.6428(5) -0.3710(8) 0.1069(8)
H41A H -0.6271 -0.3964 0.1127
O4B O -0.7643(8) -0.2768(6) 0.0770(9)
O5B O -0.6814(14) -0.2006(11) 0.1229(13)
N7B N -0.9520(6) -0.3934(4) -0.1189(7)
C31B C -0.9822(8) -0.3730(5) -0.1494(7)
H31B H -1.0160 -0.3975 -0.1736
C32B C -0.9605(9) -0.3142(5) -0.1430(8)
H32B H -0.9810 -0.2980 -0.1640
C33B C -0.9126(6) -0.2765(4) -0.1092(7)
H33B H -0.8993 -0.2356 -0.1081
C34B C -0.8845(8) -0.2999(5) -0.0773(9)
C35B C -0.9031(8) -0.3576(6) -0.0881(12)
H34B H -0.8798 -0.3732 -0.0728
C36B C -0.8275(13) -0.2644(9) -0.0463(9)
H35B H -0.8112 -0.2221 -0.0553
H36B H -0.7990 -0.2762 -0.0602
C37B C -0.8403(26) -0.2763(17) 0.0208(9)
H37B H -0.8741 -0.2711 0.0311
H38B H -0.8524 -0.3180 0.0286
C38B C -0.7913(13) -0.2394(11) 0.0635(14)
H39B H -0.8061 -0.2306 0.1019
H40B H -0.7626 -0.2020 0.0433
C39B C -0.7173(9) -0.2564(7) 0.0994(9)
C40B C -0.6904(8) -0.2938(5) 0.1027(10)
C41B C -0.6290(8) -0.2718(6) 0.1069(8)
H41B H -0.6036 -0.2307 0.1127
Pd2A Pd -0.50070(5) -0.02113(7) -0.1291(3)
Cl3A Cl -0.48546(19) 0.01084(28) -0.0274(4)
Cl4A Cl -0.5078(3) -0.0432(4) -0.2331(4)
Pd2B Pd -0.97887(7) -0.47957(5) -0.1291(3)
Cl3B Cl -1.01084(28) -0.4963(2) -0.0274(4)
Cl4B Cl -0.9568(4) -0.4646(2) -0.2331(4)
loop_
_geom_bond_atom_site_label_1
_geom_bond_atom_site_label_2
_geom_bond_site_symmetry_1
_geom_bond_site_symmetry_2
Pd1 Cl1 1_555 1_555
Cl2 Pd1 1_555 1_555
O1 C8 1_555 1_555
O2 C18 1_555 1_555
N1 Pd1 1_555 1_555
N2 H1 1_555 1_555
N3 Pd1 1_555 1_555
N4 H2 1_555 1_555
C1 N1 1_555 1_555
H3 C1 1_555 1_555
C2 C1 1_555 1_555
H4 C2 1_555 1_555
C3 C2 1_555 1_555
H5 C3 1_555 1_555
C4 C3 1_555 1_555
H6 C4 1_555 1_555
C5 N1 1_555 1_555
C6 C5 1_555 1_555
H7 C6 1_555 1_555
H8 C6 1_555 1_555
C7 N2 1_555 1_555
H9 C7 1_555 1_555
H10 C7 1_555 1_555
C8 N2 1_555 1_555
C9 C8 1_555 1_555
C10 C9 1_555 1_555
H11 C10 1_555 1_555
C11 N3 1_555 1_555
H12 C11 1_555 1_555
C12 C11 1_555 1_555
H13 C12 1_555 1_555
C13 C12 1_555 1_555
H14 C13 1_555 1_555
C14 C13 1_555 1_555
H15 C14 1_555 1_555
C15 N3 1_555 1_555
C16 C15 1_555 1_555
H16 C16 1_555 1_555
H17 C16 1_555 1_555
C17 N4 1_555 1_555
H18 C17 1_555 1_555
H19 C17 1_555 1_555
C18 N4 1_555 1_555
C19 C18 1_555 1_555
C20 C19 1_555 1_555
H20 C20 1_555 1_555
Pd2 Cl3 1_555 1_555
Cl4 Pd2 1_555 1_555
O3 C28 1_555 1_555
O4 C38 1_555 1_555
O5 C39 1_555 1_555
N5 Pd2 1_555 1_555
N6 H21 1_555 1_555
N7 Pd2 1_555 1_555
C21 N5 1_555 1_555
H22 C21 1_555 1_555
C22 C21 1_555 1_555
H23 C22 1_555 1_555
C23 C22 1_555 1_555
H24 C23 1_555 1_555
C24 C23 1_555 1_555
H25 C24 1_555 1_555
C25 N5 1_555 1_555
C26 C25 1_555 1_555
H26 C26 1_555 1_555
H27 C26 1_555 1_555
C27 N6 1_555 1_555
H28 C27 1_555 1_555
H29 C27 1_555 1_555
C28 N6 1_555 1_555
C29 C28 1_555 1_555
C30 C29 1_555 1_555
H30 C30 1_555 1_555
C31 N7 1_555 1_555
H31 C31 1_555 1_555
C32 C31 1_555 1_555
H32 C32 1_555 1_555
C33 C32 1_555 1_555
H33 C33 1_555 1_555
C34 C33 1_555 1_555
C35 N7 1_555 1_555
H34 C35 1_555 1_555
C36 C34 1_555 1_555
H35 C36 1_555 1_555
H36 C36 1_555 1_555
C37 C36 1_555 1_555
H37 C37 1_555 1_555
H38 C37 1_555 1_555
C38 C37 1_555 1_555
H39 C38 1_555 1_555
H40 C38 1_555 1_555
C39 O4 1_555 1_555
C40 C39 1_555 1_555
C41 C40 1_555 1_555
H41 C41 1_555 1_555
O1A C8A 1_555 1_555
N1A C1A 1_555 1_555
N2A H1A 1_555 1_555
C1A H3A 1_555 1_555
C2A C1A 1_555 1_555
H4A C2A 1_555 1_555
C3A C2A 1_555 1_555
H5A C3A 1_555 1_555
C4A C3A 1_555 1_555
H6A C4A 1_555 1_555
C5A N1A 1_555 1_555
C6A C5A 1_555 1_555
H7A C6A 1_555 1_555
H8A C6A 1_555 1_555
C7A N2A 1_555 1_555
H9A C7A 1_555 1_555
H10A C7A 1_555 1_555
C8A N2A 1_555 1_555
C9A C8A 1_555 1_555
C10A C9 1_555 1_555
H11A C10A 1_555 1_555
O1B C8B 1_555 1_555
N1B C1B 1_555 1_555
N2B H1B 1_555 1_555
C1B H3B 1_555 1_555
C2B C1B 1_555 1_555
H4B C2B 1_555 1_555
C3B C2B 1_555 1_555
H5B C3B 1_555 1_555
C4B C3B 1_555 1_555
H6B C4B 1_555 1_555
C5B N1B 1_555 1_555
C6B C5B 1_555 1_555
H7B C6B 1_555 1_555
H8B C6B 1_555 1_555
C7B N2B 1_555 1_555
H9B C7B 1_555 1_555
H10B C7B 1_555 1_555
C8B N2B 1_555 1_555
C9B C10 1_555 1_555
C10B C9A 1_555 1_555
H11B C10B 1_555 1_555
O2A C18A 1_555 1_555
N3A C11A 1_555 1_555
N4A H2A 1_555 1_555
C11A H12A 1_555 1_555
C12A C11A 1_555 1_555
H13A C12A 1_555 1_555
C13A C12A 1_555 1_555
H14A C13A 1_555 1_555
C14A C13A 1_555 1_555
H15A C14A 1_555 1_555
C15A N3A 1_555 1_555
C16A C15A 1_555 1_555
H16A C16A 1_555 1_555
H17A C16A 1_555 1_555
C17A N4A 1_555 1_555
H18A C17A 1_555 1_555
H19A C17A 1_555 1_555
C18A N4A 1_555 1_555
C19A C20 1_555 1_555
C20A C19A 1_555 1_555
H20A C20A 1_555 1_555
O2B C18B 1_555 1_555
N3B C11B 1_555 1_555
N4B H2B 1_555 1_555
C11B H12B 1_555 1_555
C12B C11B 1_555 1_555
H13B C12B 1_555 1_555
C13B C12B 1_555 1_555
H14B C13B 1_555 1_555
C14B C13B 1_555 1_555
H15B C14B 1_555 1_555
C15B N3B 1_555 1_555
C16B C15B 1_555 1_555
H16B C16B 1_555 1_555
H17B C16B 1_555 1_555
C17B N4B 1_555 1_555
H18B C17B 1_555 1_555
H19B C17B 1_555 1_555
C18B N4B 1_555 1_555
C19B C20A 1_555 1_555
C20B C19 1_555 1_555
H20B C20B 1_555 1_555
Pd1A N1A 1_555 1_555
Cl1A Pd1A 1_555 1_555
Cl2A Pd1A 1_555 1_555
Pd1B N1B 1_555 1_555
Cl1B Pd1B 1_555 1_555
Cl2B Pd1B 1_555 1_555
O3A C28A 1_555 1_555
N5A C21A 1_555 1_555
N6A H21A 1_555 1_555
C21A H22A 1_555 1_555
C22A C21A 1_555 1_555
H23A C22A 1_555 1_555
C23A C22A 1_555 1_555
H24A C23A 1_555 1_555
C24A C23A 1_555 1_555
H25A C24A 1_555 1_555
C25A N5A 1_555 1_555
C26A C25A 1_555 1_555
H26A C26A 1_555 1_555
H27A C26A 1_555 1_555
C27A N6A 1_555 1_555
H28A C27A 1_555 1_555
H29A C27A 1_555 1_555
C28A N6A 1_555 1_555
C29A C30 1_555 1_555
C30A C29A 1_555 1_555
H30A C30A 1_555 1_555
O3B C28B 1_555 1_555
N5B C21B 1_555 1_555
N6B H21B 1_555 1_555
C21B H22B 1_555 1_555
C22B C21B 1_555 1_555
H23B C22B 1_555 1_555
C23B C22B 1_555 1_555
H24B C23B 1_555 1_555
C24B C23B 1_555 1_555
H25B C24B 1_555 1_555
C25B N5B 1_555 1_555
C26B C25B 1_555 1_555
H26B C26B 1_555 1_555
H27B C26B 1_555 1_555
C27B N6B 1_555 1_555
H28B C27B 1_555 1_555
H29B C27B 1_555 1_555
C28B N6B 1_555 1_555
C29B C30A 1_555 1_555
C30B C29 1_555 1_555
H30B C30B 1_555 1_555
O4A C38A 1_555 1_555
O5A C39A 1_555 1_555
N7A C31A 1_555 1_555
C31A H31A 1_555 1_555
C32A C31A 1_555 1_555
H32A C32A 1_555 1_555
C33A C32A 1_555 1_555
H33A C33A 1_555 1_555
C34A C33A 1_555 1_555
C35A N7A 1_555 1_555
H34A C35A 1_555 1_555
C36A C34A 1_555 1_555
H35A C36A 1_555 1_555
H36A C36A 1_555 1_555
C37A C36A 1_555 1_555
H37A C37A 1_555 1_555
H38A C37A 1_555 1_555
C38A C37A 1_555 1_555
H39A C38A 1_555 1_555
H40A C38A 1_555 1_555
C39A O4A 1_555 1_555
C40A C39A 1_555 1_555
C41A C40 1_555 1_555
H41A C41A 1_555 1_555
O4B C38B 1_555 1_555
O5B C39B 1_555 1_555
N7B C31B 1_555 1_555
C31B H31B 1_555 1_555
C32B C31B 1_555 1_555
H32B C32B 1_555 1_555
C33B C32B 1_555 1_555
H33B C33B 1_555 1_555
C34B C33B 1_555 1_555
C35B N7B 1_555 1_555
H34B C35B 1_555 1_555
C36B C34B 1_555 1_555
H35B C36B 1_555 1_555
H36B C36B 1_555 1_555
C37B C36B 1_555 1_555
H37B C37B 1_555 1_555
H38B C37B 1_555 1_555
C38B C37B 1_555 1_555
H39B C38B 1_555 1_555
H40B C38B 1_555 1_555
C39B O4B 1_555 1_555
C40B C41 1_555 1_555
C41B C40A 1_555 1_555
H41B C41B 1_555 1_555
Pd2A N5A 1_555 1_555
Cl3A Pd2A 1_555 1_555
Cl4A Pd2A 1_555 1_555
Pd2B N5B 1_555 1_555
Cl3B Pd2B 1_555 1_555
Cl4B Pd2B 1_555 1_555
C4 C5 1_555 1_555
C6 C7 1_555 1_555
C14 C15 1_555 1_555
C16 C17 1_555 1_555
C24 C25 1_555 1_555
C26 C27 1_555 1_555
C34 C35 1_555 1_555
C4A C5A 1_555 1_555
C6A C7A 1_555 1_555
C9A C10A 1_555 1_555
C4B C5B 1_555 1_555
C6B C7B 1_555 1_555
C8B C9B 1_555 1_555
C9B C10B 1_555 1_555
N3A Pd1A 1_555 1_555
C14A C15A 1_555 1_555
C16A C17A 1_555 1_555
C18A C19A 1_555 1_555
N3B Pd1B 1_555 1_555
C14B C15B 1_555 1_555
C16B C17B 1_555 1_555
C18B C19B 1_555 1_555
C19B C20B 1_555 1_555
C24A C25A 1_555 1_555
C26A C27A 1_555 1_555
C28A C29A 1_555 1_555
C24B C25B 1_555 1_555
C26B C27B 1_555 1_555
C28B C29B 1_555 1_555
C29B C30B 1_555 1_555
N7A Pd2A 1_555 1_555
C34A C35A 1_555 1_555
C40A C41A 1_555 1_555
N7B Pd2B 1_555 1_555
C34B C35B 1_555 1_555
C39B C40B 1_555 1_555
C40B C41B 1_555 1_555

#END
