
#######################################################################
#
#                 Cambridge Crystallographic Data Centre
#                                CCDC 
#
#######################################################################
#
# If this CIF has been generated from an entry in the Cambridge 
# Structural Database, then it will include bibliographic, chemical, 
# crystal, experimental, refinement or atomic coordinate data resulting 
# from the CCDC's data processing and validation procedures.
#
#######################################################################

data_VIPGAE
_chemical_formula_moiety         
'C63 H63 Br6 N9 O9 Pd3,C60 H60 Br6 N12 O6 Pd3,6(C3 H6 O1),6(H2 O1)'
_chemical_name_systematic        
"(P)-(\m~3~-N,N',N''-tris(2-(pyridin-2-yl)propyl)benzene-1,3,5-tricarboxamide)-(\m~3~-N,N',N''-tris(2-(pyridin-2-yl)ethyl)benzene-1,3,5-tricarboxamide)-tris(dibromo-palladium) (M)-bis(\m~3~-N,N',N''-tris(2-(pyridin-2-yl)ethyl)benzene-1,3,5-tricarboxamide)-tris(dibromo-palladium) acetone solvate hexahydrate"
_symmetry_cell_setting           rhombohedral
_symmetry_space_group_name_H-M   'R 3'
_symmetry_Int_Tables_number      146
_space_group_name_Hall           'R 3'
loop_
_symmetry_equiv_pos_site_id
_symmetry_equiv_pos_as_xyz
1 x,y,z
2 -y,x-y,z
3 -x+y,-x,z
4 2/3+x,1/3+y,1/3+z
5 2/3-y,1/3+x-y,1/3+z
6 2/3-x+y,1/3-x,1/3+z
7 1/3+x,2/3+y,2/3+z
8 1/3-y,2/3+x-y,2/3+z
9 1/3-x+y,2/3-x,2/3+z
_cell_length_a                   26.392(3)
_cell_length_b                   26.392(3)
_cell_length_c                   21.582(3)
_cell_angle_alpha                90
_cell_angle_beta                 90
_cell_angle_gamma                120
_cell_volume                     13018.7
_exptl_crystal_colour            yellow
_exptl_crystal_description       BLOCK
_cell_formula_units_Z            3
loop_
_atom_site_label
_atom_site_type_symbol
_atom_site_fract_x
_atom_site_fract_y
_atom_site_fract_z
Pd1 Pd -0.5166(6) -0.5235(6) -0.523(3)
Br1 Br -0.5211(9) -0.5182(9) -0.411(3)
Br2 Br -0.5117(9) -0.5248(9) -0.636(3)
O1 O -0.418(5) -0.596(4) -0.393(5)
O2 O -0.489(4) -0.746(5) -0.552(5)
N1 N -0.444(6) -0.441(6) -0.525(6)
N2 N -0.348(5) -0.536(6) -0.457(6)
H1 H -0.3172 -0.5301 -0.4788
N3 N -0.591(6) -0.601(6) -0.523(5)
N4 N -0.471(6) -0.662(6) -0.601(5)
H2 H -0.4458 -0.6300 -0.6213
C1 C -0.460(8) -0.400(8) -0.524(7)
H3 H -0.4993 -0.4096 -0.5212
C2 C -0.411(8) -0.339(7) -0.529(6)
H4 H -0.4189 -0.3071 -0.5277
C3 C -0.355(7) -0.328(7) -0.534(6)
H5 H -0.3245 -0.2894 -0.5418
C4 C -0.342(7) -0.373(7) -0.528(6)
H6 H -0.3027 -0.3647 -0.5226
C5 C -0.389(7) -0.432(7) -0.529(6)
C6 C -0.375(6) -0.480(6) -0.525(5)
H7 H -0.3405 -0.4696 -0.5504
H8 H -0.4087 -0.5156 -0.5420
C7 C -0.364(6) -0.491(6) -0.460(6)
H9 H -0.3325 -0.4542 -0.4416
H10 H -0.4000 -0.5032 -0.4346
C8 C -0.374(7) -0.581(7) -0.428(7)
C9 C -0.350(7) -0.627(7) -0.427(6)
C10 C -0.293(6) -0.607(6) -0.429(6)
H11 H -0.2656 -0.5667 -0.4305
C11 C -0.642(6) -0.598(7) -0.520(6)
H12 H -0.6410 -0.5618 -0.5217
C12 C -0.697(7) -0.652(8) -0.515(7)
H13 H -0.7323 -0.6505 -0.5113
C13 C -0.699(7) -0.703(8) -0.515(6)
H14 H -0.7356 -0.7389 -0.5136
C14 C -0.648(9) -0.704(8) -0.516(7)
H15 H -0.6493 -0.7409 -0.5147
C15 C -0.594(8) -0.654(8) -0.519(7)
C16 C -0.543(6) -0.659(6) -0.526(7)
H16 H -0.5453 -0.6897 -0.4974
H17 H -0.5080 -0.6217 -0.5143
C17 C -0.535(7) -0.674(7) -0.589(7)
H18 H -0.5439 -0.6511 -0.6191
H19 H -0.5631 -0.7161 -0.5970
C18 C -0.454(8) -0.700(8) -0.582(7)
C19 C -0.394(6) -0.683(6) -0.584(6)
C20 C -0.376(7) -0.724(7) -0.587(6)
H20 H -0.4058 -0.7634 -0.5905
O1A O -0.404(4) -0.822(6) -0.393(5)
N1A N -0.559(6) -1.003(8) -0.525(6)
N2A N -0.464(6) -0.812(8) -0.457(6)
H1A H -0.4699 -0.7871 -0.4788
C1A C -0.600(8) -1.060(11) -0.524(7)
H3A H -0.5904 -1.0897 -0.5212
C2A C -0.661(7) -1.072(11) -0.529(6)
H4A H -0.6929 -1.1118 -0.5277
C3A C -0.672(7) -1.027(10) -0.534(6)
H5A H -0.7106 -1.0351 -0.5418
C4A C -0.627(7) -0.969(10) -0.528(6)
H6A H -0.6353 -0.9380 -0.5226
C5A C -0.568(7) -0.957(10) -0.529(6)
C6A C -0.520(6) -0.895(8) -0.525(5)
H7A H -0.5304 -0.8709 -0.5504
H8A H -0.4844 -0.8931 -0.5420
C7A C -0.509(6) -0.873(8) -0.460(6)
H9A H -0.5458 -0.8783 -0.4416
H10A H -0.4968 -0.8968 -0.4346
C8A C -0.419(7) -0.793(10) -0.428(7)
C9A C -0.373(7) -0.723(10) -0.427(6)
C10A C -0.393(6) -0.686(8) -0.429(6)
H11A H -0.4333 -0.6989 -0.4305
O1B O -0.178(6) -0.582(5) -0.393(5)
N1B N 0.003(8) -0.556(6) -0.525(6)
N2B N -0.188(8) -0.652(5) -0.457(6)
H1B H -0.2129 -0.6828 -0.4788
C1B C 0.060(11) -0.540(8) -0.524(7)
H3B H 0.0897 -0.5007 -0.5212
C2B C 0.072(11) -0.589(8) -0.529(6)
H4B H 0.1118 -0.5811 -0.5277
C3B C 0.027(10) -0.645(7) -0.534(6)
H5B H 0.0351 -0.6755 -0.5418
C4B C -0.031(10) -0.658(7) -0.528(6)
H6B H -0.0620 -0.6973 -0.5226
C5B C -0.043(10) -0.611(7) -0.529(6)
C6B C -0.105(8) -0.625(6) -0.525(5)
H7B H -0.1291 -0.6595 -0.5504
H8B H -0.1069 -0.5913 -0.5420
C7B C -0.127(8) -0.636(6) -0.460(6)
H9B H -0.1217 -0.6675 -0.4416
H10B H -0.1032 -0.6000 -0.4346
C8B C -0.207(10) -0.626(7) -0.428(7)
C9B C -0.277(10) -0.650(7) -0.427(6)
C10B C -0.314(8) -0.707(6) -0.429(6)
H11B H -0.3011 -0.7344 -0.4305
O2A O -0.254(5) -0.743(6) -0.552(5)
N3A N -0.399(6) -0.990(8) -0.523(5)
N4A N -0.338(6) -0.809(8) -0.601(5)
H2A H -0.3700 -0.8158 -0.6213
C11A C -0.402(7) -1.044(9) -0.520(6)
H12A H -0.4382 -1.0792 -0.5217
C12A C -0.348(8) -1.045(11) -0.515(7)
H13A H -0.3495 -1.0818 -0.5113
C13A C -0.297(8) -0.996(11) -0.515(6)
H14A H -0.2611 -0.9967 -0.5136
C14A C -0.296(8) -0.944(12) -0.516(7)
H15A H -0.2591 -0.9084 -0.5147
C15A C -0.346(8) -0.940(11) -0.519(7)
C16A C -0.341(6) -0.884(8) -0.526(7)
H16A H -0.3103 -0.8556 -0.4974
H17A H -0.3783 -0.8863 -0.5143
C17A C -0.326(7) -0.861(10) -0.589(7)
H18A H -0.3489 -0.8928 -0.6191
H19A H -0.2839 -0.8470 -0.5970
C18A C -0.300(8) -0.754(11) -0.582(7)
C19A C -0.317(6) -0.711(8) -0.584(6)
C20A C -0.276(7) -0.652(10) -0.587(6)
H20A H -0.2366 -0.6424 -0.5905
O2B O -0.257(6) -0.511(4) -0.552(5)
N3B N -0.010(8) -0.409(6) -0.523(5)
N4B N -0.191(8) -0.529(6) -0.601(5)
H2B H -0.1842 -0.5542 -0.6213
C11B C 0.044(9) -0.358(6) -0.520(6)
H12B H 0.0792 -0.3590 -0.5217
C12B C 0.045(11) -0.303(7) -0.515(7)
H13B H 0.0818 -0.2677 -0.5113
C13B C -0.004(11) -0.301(7) -0.515(6)
H14B H -0.0033 -0.2644 -0.5136
C14B C -0.056(12) -0.352(9) -0.516(7)
H15B H -0.0916 -0.3507 -0.5147
C15B C -0.060(11) -0.406(8) -0.519(7)
C16B C -0.116(8) -0.457(6) -0.526(7)
H16B H -0.1444 -0.4547 -0.4974
H17B H -0.1137 -0.4920 -0.5143
C17B C -0.139(10) -0.465(7) -0.589(7)
H18B H -0.1072 -0.4561 -0.6191
H19B H -0.1530 -0.4369 -0.5970
C18B C -0.246(11) -0.546(8) -0.582(7)
C19B C -0.289(8) -0.606(6) -0.584(6)
C20B C -0.348(10) -0.624(7) -0.587(6)
H20B H -0.3576 -0.5942 -0.5905
Pd1A Pd -0.4765(6) -0.9931(8) -0.523(3)
Br1A Br -0.4818(9) -1.0029(13) -0.411(3)
Br2A Br -0.4752(9) -0.9869(13) -0.636(3)
Pd1B Pd -0.0069(8) -0.4834(6) -0.523(3)
Br1B Br 0.0029(13) -0.4789(9) -0.411(3)
Br2B Br -0.0131(13) -0.4883(9) -0.636(3)
Pd2 Pd -0.8539(6) -0.6887(6) -0.682(2)
Br3 Br -0.8350(8) -0.6546(9) -0.576(3)
Br4 Br -0.8719(8) -0.7159(8) -0.791(3)
O3 O -0.929(5) -0.842(5) -0.569(5)
O4 O -1.052(5) -0.900(6) -0.473(5)
O5 O -1.130(5) -0.981(5) -0.430(6)
N5 N -0.772(6) -0.671(6) -0.691(7)
N6 N -0.863(5) -0.858(5) -0.622(5)
H21 H -0.8567 -0.8853 -0.6385
N7 N -0.939(6) -0.713(7) -0.672(7)
C21 C -0.726(8) -0.611(8) -0.695(7)
H22 H -0.7361 -0.5814 -0.7022
C22 C -0.672(8) -0.596(8) -0.689(8)
H23 H -0.6438 -0.5561 -0.6846
C23 C -0.654(7) -0.638(8) -0.690(7)
H24 H -0.6135 -0.6258 -0.6906
C24 C -0.696(7) -0.698(7) -0.689(7)
H25 H -0.6863 -0.7281 -0.6866
C25 C -0.753(7) -0.709(7) -0.691(7)
C26 C -0.801(7) -0.773(7) -0.687(6)
H26 H -0.8368 -0.7769 -0.7059
H27 H -0.7884 -0.7960 -0.7121
C27 C -0.814(7) -0.797(7) -0.624(7)
H28 H -0.7788 -0.7948 -0.6054
H29 H -0.8249 -0.7727 -0.5978
C28 C -0.915(7) -0.875(7) -0.595(6)
C29 C -0.957(7) -0.941(6) -0.601(6)
C30 C -1.017(7) -0.958(6) -0.601(6)
H30 H -1.0278 -0.9293 -0.6015
C31 C -0.963(8) -0.687(8) -0.700(7)
H31 H -0.9395 -0.6546 -0.7261
C32 C -1.025(8) -0.706(8) -0.692(7)
H32 H -1.0418 -0.6856 -0.7110
C33 C -1.058(7) -0.757(7) -0.654(7)
H33 H -1.0994 -0.7729 -0.6498
C34 C -1.032(7) -0.780(6) -0.627(6)
C35 C -0.973(9) -0.758(9) -0.638(8)
H34 H -0.9552 -0.7779 -0.6184
C36 C -1.066(8) -0.833(7) -0.588(7)
H35 H -1.0530 -0.8618 -0.5981
H36 H -1.1076 -0.8513 -0.5984
C37 C -1.058(8) -0.821(7) -0.518(7)
H37 H -1.0160 -0.8035 -0.5080
H38 H -1.0695 -0.7915 -0.5086
C38 C -1.092(8) -0.873(9) -0.478(9)
H39 H -1.1301 -0.9006 -0.4964
H40 H -1.0988 -0.8608 -0.4363
C39 C -1.082(11) -0.955(10) -0.449(9)
C40 C -1.038(8) -0.976(9) -0.446(6)
C41 C -0.977(9) -0.941(8) -0.446(7)
H41 H -0.9605 -0.9002 -0.4454
O3A O -1.158(5) -1.087(7) -0.569(5)
N5A N -1.329(6) -1.101(8) -0.691(7)
N6A N -1.142(5) -1.005(7) -0.622(5)
H21A H -1.1147 -0.9714 -0.6385
C21A C -1.389(8) -1.115(11) -0.695(7)
H22A H -1.4186 -1.1547 -0.7022
C22A C -1.404(8) -1.076(11) -0.689(8)
H23A H -1.4439 -1.0877 -0.6846
C23A C -1.362(8) -1.016(11) -0.690(7)
H24A H -1.3742 -0.9877 -0.6906
C24A C -1.302(7) -0.998(10) -0.689(7)
H25A H -1.2719 -0.9582 -0.6866
C25A C -1.291(7) -1.044(10) -0.691(7)
C26A C -1.227(7) -1.028(10) -0.687(6)
H26A H -1.2231 -1.0599 -0.7059
H27A H -1.2040 -0.9924 -0.7121
C27A C -1.203(7) -1.017(10) -0.624(7)
H28A H -1.2052 -0.9840 -0.6054
H29A H -1.2273 -1.0522 -0.5978
C28A C -1.125(7) -1.040(10) -0.595(6)
C29A C -1.059(6) -1.016(9) -0.601(6)
C30A C -1.042(6) -1.059(9) -0.601(6)
H30A H -1.0707 -1.0985 -0.6015
O3B O -0.913(7) -1.071(5) -0.569(5)
N5B N -0.899(8) -1.228(6) -0.691(7)
N6B N -0.995(7) -1.137(5) -0.622(5)
H21B H -1.0286 -1.1433 -0.6385
C21B C -0.885(11) -1.274(8) -0.695(7)
H22B H -0.8453 -1.2639 -0.7022
C22B C -0.924(11) -1.328(8) -0.689(8)
H23B H -0.9123 -1.3562 -0.6846
C23B C -0.984(11) -1.346(7) -0.690(7)
H24B H -1.0123 -1.3865 -0.6906
C24B C -1.002(10) -1.304(7) -0.689(7)
H25B H -1.0418 -1.3137 -0.6866
C25B C -0.956(10) -1.247(7) -0.691(7)
C26B C -0.972(10) -1.199(7) -0.687(6)
H26B H -0.9401 -1.1632 -0.7059
H27B H -1.0076 -1.2116 -0.7121
C27B C -0.983(10) -1.186(7) -0.624(7)
H28B H -1.0160 -1.2212 -0.6054
H29B H -0.9478 -1.1751 -0.5978
C28B C -0.960(10) -1.085(7) -0.595(6)
C29B C -0.984(9) -1.043(7) -0.601(6)
C30B C -0.941(9) -0.983(7) -0.601(6)
H30B H -0.9015 -0.9722 -0.6015
O4A O -1.100(6) -1.152(8) -0.473(5)
O5A O -1.019(5) -1.149(7) -0.430(6)
N7A N -1.287(7) -1.226(9) -0.672(7)
C31A C -1.313(8) -1.276(11) -0.700(7)
H31A H -1.3454 -1.2849 -0.7261
C32A C -1.294(8) -1.319(11) -0.692(7)
H32A H -1.3144 -1.3562 -0.7110
C33A C -1.243(7) -1.301(10) -0.654(7)
H33A H -1.2271 -1.3265 -0.6498
C34A C -1.220(6) -1.252(9) -0.627(6)
C35A C -1.242(9) -1.215(13) -0.638(8)
H34A H -1.2221 -1.1773 -0.6184
C36A C -1.167(7) -1.233(11) -0.588(7)
H35A H -1.1382 -1.1912 -0.5981
H36A H -1.1487 -1.2563 -0.5984
C37A C -1.179(7) -1.237(11) -0.518(7)
H37A H -1.1965 -1.2125 -0.5080
H38A H -1.2085 -1.2780 -0.5086
C38A C -1.127(9) -1.219(12) -0.478(9)
H39A H -1.0994 -1.2295 -0.4964
H40A H -1.1392 -1.2380 -0.4363
C39A C -1.045(10) -1.127(15) -0.449(9)
C40A C -1.024(9) -1.062(12) -0.446(6)
C41A C -1.059(8) -1.036(12) -0.446(7)
H41A H -1.0998 -1.0603 -0.4454
O4B O -0.848(8) -0.948(5) -0.473(5)
O5B O -0.851(7) -0.870(5) -0.430(6)
N7B N -0.774(9) -1.061(6) -0.672(7)
C31B C -0.724(11) -1.037(8) -0.700(7)
H31B H -0.7151 -1.0605 -0.7261
C32B C -0.681(11) -0.975(8) -0.692(7)
H32B H -0.6438 -0.9582 -0.7110
C33B C -0.699(10) -0.942(7) -0.654(7)
H33B H -0.6735 -0.9006 -0.6498
C34B C -0.748(9) -0.968(7) -0.627(6)
C35B C -0.785(13) -1.027(9) -0.638(8)
H34B H -0.8227 -1.0448 -0.6184
C36B C -0.767(11) -0.934(8) -0.588(7)
H35B H -0.8088 -0.9470 -0.5981
H36B H -0.7437 -0.8924 -0.5984
C37B C -0.763(11) -0.942(8) -0.518(7)
H37B H -0.7875 -0.9840 -0.5080
H38B H -0.7220 -0.9305 -0.5086
C38B C -0.781(12) -0.908(8) -0.478(9)
H39B H -0.7705 -0.8699 -0.4964
H40B H -0.7620 -0.9012 -0.4363
C39B C -0.873(15) -0.918(11) -0.449(9)
C40B C -0.938(12) -0.962(8) -0.446(6)
C41B C -0.964(12) -1.023(9) -0.446(7)
H41B H -0.9397 -1.0395 -0.4454
Pd2A Pd -1.3113(6) -1.1652(8) -0.682(2)
Br3A Br -1.3454(9) -1.1804(12) -0.576(3)
Br4A Br -1.2841(8) -1.1560(11) -0.791(3)
Pd2B Pd -0.8348(8) -1.1461(6) -0.682(2)
Br3B Br -0.8196(12) -1.1650(8) -0.576(3)
Br4B Br -0.8440(11) -1.1281(8) -0.791(3)
O6 O -0.907(7) -0.468(5) -0.768(6)
C42 C -0.953(7) -0.568(5) -0.751(7)
H42 H -0.9788 -0.5696 -0.7846
H43 H -0.9756 -0.5858 -0.7138
H44 H -0.9334 -0.5900 -0.7642
C43 C -0.908(5) -0.507(6) -0.739(4)
C44 C -0.866(8) -0.496(10) -0.689(7)
H45 H -0.8391 -0.4534 -0.6854
H46 H -0.8429 -0.5147 -0.6999
H47 H -0.8862 -0.5114 -0.6503
O7 O -0.398(7) -0.577(7) -0.687(8)
C45 C -0.437(10) -0.546(11) -0.764(9)
H48 H -0.4639 -0.5877 -0.7691
H49 H -0.4153 -0.5296 -0.8029
H50 H -0.4588 -0.5260 -0.7536
C46 C -0.395(7) -0.536(6) -0.714(5)
C47 C -0.348(12) -0.476(6) -0.702(11)
H51 H -0.3246 -0.4759 -0.6667
H52 H -0.3647 -0.4512 -0.6933
H53 H -0.3226 -0.4611 -0.7389
O8 O -0.800(13) -0.401(13) -0.425(10)
H54 H -0.8190 -0.4340 -0.4100
H55 H -0.7964 -0.4039 -0.4624
O9 O -1.081(19) -0.963(19) -0.243(15)
H56 H -1.1023 -0.9580 -0.2195
H57 H -1.0871 -0.9567 -0.2789
loop_
_geom_bond_atom_site_label_1
_geom_bond_atom_site_label_2
_geom_bond_site_symmetry_1
_geom_bond_site_symmetry_2
Pd1 Br1 1_555 1_555
Br2 Pd1 1_555 1_555
O1 C8 1_555 1_555
O2 C18 1_555 1_555
N1 Pd1 1_555 1_555
N2 H1 1_555 1_555
N3 Pd1 1_555 1_555
N4 H2 1_555 1_555
C1 N1 1_555 1_555
H3 C1 1_555 1_555
C2 C1 1_555 1_555
H4 C2 1_555 1_555
C3 C2 1_555 1_555
H5 C3 1_555 1_555
C4 C3 1_555 1_555
H6 C4 1_555 1_555
C5 N1 1_555 1_555
C6 C5 1_555 1_555
H7 C6 1_555 1_555
H8 C6 1_555 1_555
C7 N2 1_555 1_555
H9 C7 1_555 1_555
H10 C7 1_555 1_555
C8 N2 1_555 1_555
C9 C8 1_555 1_555
C10 C9 1_555 1_555
H11 C10 1_555 1_555
C11 N3 1_555 1_555
H12 C11 1_555 1_555
C12 C11 1_555 1_555
H13 C12 1_555 1_555
C13 C12 1_555 1_555
H14 C13 1_555 1_555
C14 C13 1_555 1_555
H15 C14 1_555 1_555
C15 N3 1_555 1_555
C16 C15 1_555 1_555
H16 C16 1_555 1_555
H17 C16 1_555 1_555
C17 N4 1_555 1_555
H18 C17 1_555 1_555
H19 C17 1_555 1_555
C18 N4 1_555 1_555
C19 C18 1_555 1_555
C20 C19 1_555 1_555
H20 C20 1_555 1_555
Pd2 Br3 1_555 1_555
Br4 Pd2 1_555 1_555
O3 C28 1_555 1_555
O4 C38 1_555 1_555
O5 C39 1_555 1_555
N5 Pd2 1_555 1_555
N6 H21 1_555 1_555
N7 Pd2 1_555 1_555
C21 N5 1_555 1_555
H22 C21 1_555 1_555
C22 C21 1_555 1_555
H23 C22 1_555 1_555
C23 C22 1_555 1_555
H24 C23 1_555 1_555
C24 C23 1_555 1_555
H25 C24 1_555 1_555
C25 N5 1_555 1_555
C26 C25 1_555 1_555
H26 C26 1_555 1_555
H27 C26 1_555 1_555
C27 N6 1_555 1_555
H28 C27 1_555 1_555
H29 C27 1_555 1_555
C28 N6 1_555 1_555
C29 C28 1_555 1_555
C30 C29 1_555 1_555
H30 C30 1_555 1_555
C31 N7 1_555 1_555
H31 C31 1_555 1_555
C32 C31 1_555 1_555
H32 C32 1_555 1_555
C33 C32 1_555 1_555
H33 C33 1_555 1_555
C34 C33 1_555 1_555
C35 N7 1_555 1_555
H34 C35 1_555 1_555
C36 C34 1_555 1_555
H35 C36 1_555 1_555
H36 C36 1_555 1_555
C37 C36 1_555 1_555
H37 C37 1_555 1_555
H38 C37 1_555 1_555
C38 C37 1_555 1_555
H39 C38 1_555 1_555
H40 C38 1_555 1_555
C39 O4 1_555 1_555
C40 C39 1_555 1_555
C41 C40 1_555 1_555
H41 C41 1_555 1_555
O6 C43 1_555 1_555
C42 H42 1_555 1_555
H43 C42 1_555 1_555
H44 C42 1_555 1_555
C43 C42 1_555 1_555
C44 C43 1_555 1_555
H45 C44 1_555 1_555
H46 C44 1_555 1_555
H47 C44 1_555 1_555
O7 C46 1_555 1_555
C45 H48 1_555 1_555
H49 C45 1_555 1_555
H50 C45 1_555 1_555
C46 C45 1_555 1_555
C47 C46 1_555 1_555
H51 C47 1_555 1_555
H52 C47 1_555 1_555
H53 C47 1_555 1_555
O8 H54 1_555 1_555
H55 O8 1_555 1_555
O9 H56 1_555 1_555
H57 O9 1_555 1_555
O1A C8A 1_555 1_555
N1A C1A 1_555 1_555
N2A H1A 1_555 1_555
C1A H3A 1_555 1_555
C2A C1A 1_555 1_555
H4A C2A 1_555 1_555
C3A C2A 1_555 1_555
H5A C3A 1_555 1_555
C4A C3A 1_555 1_555
H6A C4A 1_555 1_555
C5A N1A 1_555 1_555
C6A C5A 1_555 1_555
H7A C6A 1_555 1_555
H8A C6A 1_555 1_555
C7A N2A 1_555 1_555
H9A C7A 1_555 1_555
H10A C7A 1_555 1_555
C8A N2A 1_555 1_555
C9A C8A 1_555 1_555
C10A C9 1_555 1_555
H11A C10A 1_555 1_555
O1B C8B 1_555 1_555
N1B C1B 1_555 1_555
N2B H1B 1_555 1_555
C1B H3B 1_555 1_555
C2B C1B 1_555 1_555
H4B C2B 1_555 1_555
C3B C2B 1_555 1_555
H5B C3B 1_555 1_555
C4B C3B 1_555 1_555
H6B C4B 1_555 1_555
C5B N1B 1_555 1_555
C6B C5B 1_555 1_555
H7B C6B 1_555 1_555
H8B C6B 1_555 1_555
C7B N2B 1_555 1_555
H9B C7B 1_555 1_555
H10B C7B 1_555 1_555
C8B N2B 1_555 1_555
C9B C10 1_555 1_555
C10B C9A 1_555 1_555
H11B C10B 1_555 1_555
O2A C18A 1_555 1_555
N3A C11A 1_555 1_555
N4A H2A 1_555 1_555
C11A H12A 1_555 1_555
C12A C11A 1_555 1_555
H13A C12A 1_555 1_555
C13A C12A 1_555 1_555
H14A C13A 1_555 1_555
C14A C13A 1_555 1_555
H15A C14A 1_555 1_555
C15A N3A 1_555 1_555
C16A C15A 1_555 1_555
H16A C16A 1_555 1_555
H17A C16A 1_555 1_555
C17A N4A 1_555 1_555
H18A C17A 1_555 1_555
H19A C17A 1_555 1_555
C18A N4A 1_555 1_555
C19A C20 1_555 1_555
C20A C19A 1_555 1_555
H20A C20A 1_555 1_555
O2B C18B 1_555 1_555
N3B C11B 1_555 1_555
N4B H2B 1_555 1_555
C11B H12B 1_555 1_555
C12B C11B 1_555 1_555
H13B C12B 1_555 1_555
C13B C12B 1_555 1_555
H14B C13B 1_555 1_555
C14B C13B 1_555 1_555
H15B C14B 1_555 1_555
C15B N3B 1_555 1_555
C16B C15B 1_555 1_555
H16B C16B 1_555 1_555
H17B C16B 1_555 1_555
C17B N4B 1_555 1_555
H18B C17B 1_555 1_555
H19B C17B 1_555 1_555
C18B N4B 1_555 1_555
C19B C20A 1_555 1_555
C20B C19 1_555 1_555
H20B C20B 1_555 1_555
Pd1A N1A 1_555 1_555
Br1A Pd1A 1_555 1_555
Br2A Pd1A 1_555 1_555
Pd1B N1B 1_555 1_555
Br1B Pd1B 1_555 1_555
Br2B Pd1B 1_555 1_555
O3A C28A 1_555 1_555
N5A C21A 1_555 1_555
N6A H21A 1_555 1_555
C21A H22A 1_555 1_555
C22A C21A 1_555 1_555
H23A C22A 1_555 1_555
C23A C22A 1_555 1_555
H24A C23A 1_555 1_555
C24A C23A 1_555 1_555
H25A C24A 1_555 1_555
C25A N5A 1_555 1_555
C26A C25A 1_555 1_555
H26A C26A 1_555 1_555
H27A C26A 1_555 1_555
C27A N6A 1_555 1_555
H28A C27A 1_555 1_555
H29A C27A 1_555 1_555
C28A N6A 1_555 1_555
C29A C30 1_555 1_555
C30A C29A 1_555 1_555
H30A C30A 1_555 1_555
O3B C28B 1_555 1_555
N5B C21B 1_555 1_555
N6B H21B 1_555 1_555
C21B H22B 1_555 1_555
C22B C21B 1_555 1_555
H23B C22B 1_555 1_555
C23B C22B 1_555 1_555
H24B C23B 1_555 1_555
C24B C23B 1_555 1_555
H25B C24B 1_555 1_555
C25B N5B 1_555 1_555
C26B C25B 1_555 1_555
H26B C26B 1_555 1_555
H27B C26B 1_555 1_555
C27B N6B 1_555 1_555
H28B C27B 1_555 1_555
H29B C27B 1_555 1_555
C28B N6B 1_555 1_555
C29B C30A 1_555 1_555
C30B C29 1_555 1_555
H30B C30B 1_555 1_555
O4A C38A 1_555 1_555
O5A C39A 1_555 1_555
N7A C31A 1_555 1_555
C31A H31A 1_555 1_555
C32A C31A 1_555 1_555
H32A C32A 1_555 1_555
C33A C32A 1_555 1_555
H33A C33A 1_555 1_555
C34A C33A 1_555 1_555
C35A N7A 1_555 1_555
H34A C35A 1_555 1_555
C36A C34A 1_555 1_555
H35A C36A 1_555 1_555
H36A C36A 1_555 1_555
C37A C36A 1_555 1_555
H37A C37A 1_555 1_555
H38A C37A 1_555 1_555
C38A C37A 1_555 1_555
H39A C38A 1_555 1_555
H40A C38A 1_555 1_555
C39A O4A 1_555 1_555
C40A C39A 1_555 1_555
C41A C40 1_555 1_555
H41A C41A 1_555 1_555
O4B C38B 1_555 1_555
O5B C39B 1_555 1_555
N7B C31B 1_555 1_555
C31B H31B 1_555 1_555
C32B C31B 1_555 1_555
H32B C32B 1_555 1_555
C33B C32B 1_555 1_555
H33B C33B 1_555 1_555
C34B C33B 1_555 1_555
C35B N7B 1_555 1_555
H34B C35B 1_555 1_555
C36B C34B 1_555 1_555
H35B C36B 1_555 1_555
H36B C36B 1_555 1_555
C37B C36B 1_555 1_555
H37B C37B 1_555 1_555
H38B C37B 1_555 1_555
C38B C37B 1_555 1_555
H39B C38B 1_555 1_555
H40B C38B 1_555 1_555
C39B O4B 1_555 1_555
C40B C41 1_555 1_555
C41B C40A 1_555 1_555
H41B C41B 1_555 1_555
Pd2A N5A 1_555 1_555
Br3A Pd2A 1_555 1_555
Br4A Pd2A 1_555 1_555
Pd2B N5B 1_555 1_555
Br3B Pd2B 1_555 1_555
Br4B Pd2B 1_555 1_555
C4 C5 1_555 1_555
C6 C7 1_555 1_555
C14 C15 1_555 1_555
C16 C17 1_555 1_555
C24 C25 1_555 1_555
C26 C27 1_555 1_555
C34 C35 1_555 1_555
C4A C5A 1_555 1_555
C6A C7A 1_555 1_555
C9A C10A 1_555 1_555
C4B C5B 1_555 1_555
C6B C7B 1_555 1_555
C8B C9B 1_555 1_555
C9B C10B 1_555 1_555
N3A Pd1A 1_555 1_555
C14A C15A 1_555 1_555
C16A C17A 1_555 1_555
C18A C19A 1_555 1_555
N3B Pd1B 1_555 1_555
C14B C15B 1_555 1_555
C16B C17B 1_555 1_555
C18B C19B 1_555 1_555
C19B C20B 1_555 1_555
C24A C25A 1_555 1_555
C26A C27A 1_555 1_555
C28A C29A 1_555 1_555
C24B C25B 1_555 1_555
C26B C27B 1_555 1_555
C28B C29B 1_555 1_555
C29B C30B 1_555 1_555
N7A Pd2A 1_555 1_555
C34A C35A 1_555 1_555
C40A C41A 1_555 1_555
N7B Pd2B 1_555 1_555
C34B C35B 1_555 1_555
C39B C40B 1_555 1_555
C40B C41B 1_555 1_555

#END
