
#######################################################################
#
#                 Cambridge Crystallographic Data Centre
#                                CCDC 
#
#######################################################################
#
# If this CIF has been generated from an entry in the Cambridge 
# Structural Database, then it will include bibliographic, chemical, 
# crystal, experimental, refinement or atomic coordinate data resulting 
# from the CCDC's data processing and validation procedures.
#
#######################################################################

data_VOGXUM
_chemical_formula_moiety         'C63 H48 N12 O3 Pd3 6+,6(B1 F4 1-)'
_chemical_name_systematic        
'(2,20,38-trioxa-7,15,25,33,43,51,57,62,67-nonaazadecacyclo[50.2.2.2^3,6^.2^16,19^.2^21,24^.2^34,37^.2^39,42^.1^9,13^.1^27,31^.1^45,49^]nonahexaconta-1(54),3,5,7,9(67),10,12,14,16,18,21,23,25,27(62),28,30,32,34,36,39,41,43,45(57),46,48,50,52,55,58,60,63,65,68-tritriacontaene)-tris(acetonitrile)-tri-palladium hexakis(tetrafluoroborate) unknown solvate'
_symmetry_cell_setting           orthorhombic
_symmetry_space_group_name_H-M   'F m m m'
_symmetry_Int_Tables_number      69
_space_group_name_Hall           '-F 2 2'
loop_
_symmetry_equiv_pos_site_id
_symmetry_equiv_pos_as_xyz
1 x,y,z
2 -x,-y,z
3 -x,y,-z
4 x,-y,-z
5 x,1/2+y,1/2+z
6 -x,1/2-y,1/2+z
7 -x,1/2+y,1/2-z
8 x,1/2-y,1/2-z
9 1/2+x,y,1/2+z
10 1/2-x,-y,1/2+z
11 1/2-x,y,1/2-z
12 1/2+x,-y,1/2-z
13 1/2+x,1/2+y,z
14 1/2-x,1/2-y,z
15 1/2-x,1/2+y,-z
16 1/2+x,1/2-y,-z
17 -x,-y,-z
18 x,y,-z
19 x,-y,z
20 -x,y,z
21 -x,1/2-y,1/2-z
22 x,1/2+y,1/2-z
23 x,1/2-y,1/2+z
24 -x,1/2+y,1/2+z
25 1/2-x,-y,1/2-z
26 1/2+x,y,1/2-z
27 1/2+x,-y,1/2+z
28 1/2-x,y,1/2+z
29 1/2-x,1/2-y,-z
30 1/2+x,1/2+y,-z
31 1/2+x,1/2-y,z
32 1/2-x,1/2+y,z
_cell_length_a                   25.5604(17)
_cell_length_b                   28.5295(19)
_cell_length_c                   53.944(3)
_cell_angle_alpha                90
_cell_angle_beta                 90
_cell_angle_gamma                90
_cell_volume                     39337.3
_exptl_crystal_colour            'pale yellow'
_exptl_crystal_description       block
_cell_formula_units_Z            16
loop_
_atom_site_label
_atom_site_type_symbol
_atom_site_fract_x
_atom_site_fract_y
_atom_site_fract_z
Pd1 Pd 0.12977(4) 0.0000 0.21908(2)
Pd2 Pd 0.12835(4) 0.19936(4) 0.402632(18)
N1 N 0.1285(3) 0.2413(5) 0.37339(18)
N2 N 0.1227(4) 0.1740(5) 0.4391(2)
N3 N 0.1240(3) 0.0708(4) 0.2130(2)
N4 N 0.0978(4) 0.0000 0.1864(2)
N5 N 0.1716(5) 0.0000 0.2517(2)
N6 N 0.1038(3) 0.2542(3) 0.41818(15)
C1 C 0.0921(4) 0.2542(3) 0.44335(15)
C2 C 0.0728(4) 0.2946(4) 0.45453(12)
H1 H 0.0649 0.2946 0.4717
C3 C 0.0652(4) 0.3349(3) 0.44053(17)
H2 H 0.0520 0.3625 0.4482
C4 C 0.0768(4) 0.3349(3) 0.41536(16)
H3 H 0.0716 0.3625 0.4058
C5 C 0.0961(4) 0.2946(3) 0.40419(12)
C6 C 0.1098(6) 0.2830(6) 0.3790(2)
H4 H 0.1052 0.3057 0.3663
C7 C 0.1449(6) 0.2329(6) 0.3484(2)
C8 C 0.1137(6) 0.2469(5) 0.3287(2)
H5 H 0.0821 0.2635 0.3318
C9 C 0.1288(5) 0.2365(6) 0.3044(2)
H6 H 0.1074 0.2448 0.2907
C10 C 0.1781(6) 0.2129(5) 0.3010(3)
C11 C 0.2064(6) 0.2016(5) 0.3208(2)
H7 H 0.2386 0.1858 0.3182
C12 C 0.1917(5) 0.2116(5) 0.3451(2)
H8 H 0.2135 0.2038 0.3588
C13 C 0.1730(5) 0.1742(4) 0.2624(2)
C14 C 0.1447(5) 0.1397(5) 0.2709(2)
H9 H 0.1356 0.1383 0.2879
C15 C 0.1271(4) 0.1033(5) 0.2539(2)
H10 H 0.1074 0.0773 0.2597
C16 C 0.1394(4) 0.1074(5) 0.2299(2)
C17 C 0.1697(5) 0.1441(5) 0.2214(2)
H11 H 0.1799 0.1454 0.2045
C18 C 0.1847(4) 0.1781(4) 0.2374(2)
H12 H 0.2032 0.2047 0.2315
C19 C 0.1039(5) 0.0828(4) 0.1920(2)
H13 H 0.0992 0.1146 0.1872
C20 C 0.0885(5) 0.0421(4) 0.1759(2)
C21 C 0.0713(4) 0.0431(5) 0.1518(2)
H14 H 0.0648 0.0720 0.1437
C22 C 0.0636(6) 0.0000 0.1394(4)
H15 H 0.0530 0.0000 0.1225
C23 C 0.1341(5) 0.1299(3) 0.4480(2)
C24 C 0.1198(5) 0.0903(5) 0.4346(2)
H16 H 0.0991 0.0935 0.4201
C25 C 0.1358(6) 0.0462(4) 0.4424(3)
H17 H 0.1261 0.0192 0.4332
C26 C 0.1661(5) 0.0415(4) 0.4636(3)
C27 C 0.1804(6) 0.0811(5) 0.4771(2)
H18 H 0.2011 0.0779 0.4916
C28 C 0.1644(6) 0.1252(4) 0.4693(3)
H19 H 0.1741 0.1522 0.4785
C29 C 0.1018(6) 0.2075(6) 0.4529(2)
H20 H 0.0929 0.2007 0.4696
C30 C 0.1910(8) 0.0000 0.2697(5)
C31 C 0.2213(12) 0.0000 0.2941(6)
N7 N 0.1506(5) 0.1441(5) 0.38635(18)
C32 C 0.1589(5) 0.1089(4) 0.3763(2)
C33 C 0.1693(10) 0.0648(6) 0.3637(4)
H21 H 0.1851 0.0710 0.3475
H22 H 0.1365 0.0476 0.3615
H23 H 0.1934 0.0459 0.3738
O1 O 0.1959(3) 0.2078(3) 0.27759(16)
O2 O 0.1843(7) 0.0000 0.4733(3)
N1R N 0.1285(3) -0.2413(5) 0.37339(18)
N2R N 0.1227(4) -0.1740(5) 0.4391(2)
N3R N 0.1240(3) -0.0708(4) 0.2130(2)
N6R N 0.1038(3) -0.2542(3) 0.41818(15)
C1R C 0.0921(4) -0.2542(3) 0.44335(15)
C2R C 0.0728(4) -0.2946(4) 0.45453(12)
H1R H 0.0649 -0.2946 0.4717
C3R C 0.0652(4) -0.3349(3) 0.44053(17)
H2R H 0.0520 -0.3625 0.4482
C4R C 0.0768(4) -0.3349(3) 0.41536(16)
H3R H 0.0716 -0.3625 0.4058
C5R C 0.0961(4) -0.2946(3) 0.40419(12)
C6R C 0.1098(6) -0.2830(6) 0.3790(2)
H4R H 0.1052 -0.3057 0.3663
C7R C 0.1449(6) -0.2329(6) 0.3484(2)
C8R C 0.1137(6) -0.2469(5) 0.3287(2)
H5R H 0.0821 -0.2635 0.3318
C9R C 0.1288(5) -0.2365(6) 0.3044(2)
H6R H 0.1074 -0.2448 0.2907
C10R C 0.1781(6) -0.2129(5) 0.3010(3)
C11R C 0.2064(6) -0.2016(5) 0.3208(2)
H7R H 0.2386 -0.1858 0.3182
C12R C 0.1917(5) -0.2116(5) 0.3451(2)
H8R H 0.2135 -0.2038 0.3588
C13R C 0.1730(5) -0.1742(4) 0.2624(2)
C14R C 0.1447(5) -0.1397(5) 0.2709(2)
H9R H 0.1356 -0.1383 0.2879
C15R C 0.1271(4) -0.1033(5) 0.2539(2)
H10R H 0.1074 -0.0773 0.2597
C16R C 0.1394(4) -0.1074(5) 0.2299(2)
C17R C 0.1697(5) -0.1441(5) 0.2214(2)
H11R H 0.1799 -0.1454 0.2045
C18R C 0.1847(4) -0.1781(4) 0.2374(2)
H12R H 0.2032 -0.2047 0.2315
C19R C 0.1039(5) -0.0828(4) 0.1920(2)
H13R H 0.0992 -0.1146 0.1872
C20R C 0.0885(5) -0.0421(4) 0.1759(2)
C21R C 0.0713(4) -0.0431(5) 0.1518(2)
H14R H 0.0648 -0.0720 0.1437
C23R C 0.1341(5) -0.1299(3) 0.4480(2)
C24R C 0.1198(5) -0.0903(5) 0.4346(2)
H16R H 0.0991 -0.0935 0.4201
C25R C 0.1358(6) -0.0462(4) 0.4424(3)
H17R H 0.1261 -0.0192 0.4332
C26R C 0.1661(5) -0.0415(4) 0.4636(3)
C27R C 0.1804(6) -0.0811(5) 0.4771(2)
H18R H 0.2011 -0.0779 0.4916
C28R C 0.1644(6) -0.1252(4) 0.4693(3)
H19R H 0.1741 -0.1522 0.4785
C29R C 0.1018(6) -0.2075(6) 0.4529(2)
H20R H 0.0929 -0.2007 0.4696
O1R O 0.1959(3) -0.2078(3) 0.27759(16)
Pd2R Pd 0.12835(4) -0.19936(4) 0.402632(18)
N7R N 0.1506(5) -0.1441(5) 0.38635(18)
C32R C 0.1589(5) -0.1089(4) 0.3763(2)
C33R C 0.1693(10) -0.0648(6) 0.3637(4)
H21R H 0.1851 -0.0710 0.3475
H22R H 0.1365 -0.0476 0.3615
H23R H 0.1934 -0.0459 0.3738
B1 B 0.1890(9) 0.3812(10) 0.3538(5)
F1 F 0.2024(5) 0.4213(5) 0.3395(2)
F2 F 0.2320(4) 0.3722(5) 0.3700(2)
F3 F 0.1768(5) 0.3489(4) 0.34009(17)
F4 F 0.1464(5) 0.3886(4) 0.3724(2)
B2 B 0.0000 0.1644(10) 0.1507(5)
F5 F 0.0448(3) 0.1568(3) 0.16353(18)
F6 F 0.0000 0.1336(5) 0.1300(2)
F7 F 0.0000 0.2104(5) 0.1410(2)
F5S F -0.0448(3) 0.1568(3) 0.16353(18)
B3 B 0.5000 0.1876(8) 0.0000
F8 F 0.4544(4) 0.1645(4) 0.0000
F9 F 0.5000 0.1899(10) 0.0277(3)
F8B F 0.5456(4) 0.1645(4) 0.0000
F9B F 0.5000 0.1899(10) -0.0277(3)
B4 B 0.0000 0.0000 0.2351(6)
F10 F 0.0459(4) 0.0000 0.25124(18)
F11 F 0.0000 0.0363(5) 0.2209(2)
F10A F -0.0459(4) 0.0000 0.25124(18)
F11A F 0.0000 -0.0363(5) 0.2209(2)
F12 F -0.0489(9) 0.1459(10) 0.3893(5)
F13 F 0.0000 0.1551(15) 0.4292(7)
B5 B 0.0000 0.1576(12) 0.4021(5)
F14 F 0.0000 0.2061(11) 0.3992(7)
F12S F 0.0489(9) 0.1459(10) 0.3893(5)
loop_
_geom_bond_atom_site_label_1
_geom_bond_atom_site_label_2
_geom_bond_site_symmetry_1
_geom_bond_site_symmetry_2
Pd1 N3 1_555 1_555
Pd2 N1 1_555 1_555
N1 C6 1_555 1_555
N2 Pd2 1_555 1_555
N3 C16 1_555 1_555
N4 Pd1 1_555 1_555
N5 Pd1 1_555 1_555
N6 Pd2 1_555 1_555
C1 N6 1_555 1_555
C2 C1 1_555 1_555
H1 C2 1_555 1_555
C3 C2 1_555 1_555
H2 C3 1_555 1_555
C4 C3 1_555 1_555
H3 C4 1_555 1_555
C5 N6 1_555 1_555
C6 C5 1_555 1_555
H4 C6 1_555 1_555
C7 N1 1_555 1_555
C8 C7 1_555 1_555
H5 C8 1_555 1_555
C9 C8 1_555 1_555
H6 C9 1_555 1_555
C10 C9 1_555 1_555
C11 C10 1_555 1_555
H7 C11 1_555 1_555
C12 C7 1_555 1_555
H8 C12 1_555 1_555
C13 C14 1_555 1_555
C14 H9 1_555 1_555
C15 C14 1_555 1_555
H10 C15 1_555 1_555
C16 C15 1_555 1_555
C17 C16 1_555 1_555
H11 C17 1_555 1_555
C18 C13 1_555 1_555
H12 C18 1_555 1_555
C19 N3 1_555 1_555
H13 C19 1_555 1_555
C20 N4 1_555 1_555
C21 C20 1_555 1_555
H14 C21 1_555 1_555
C22 C21 1_555 1_555
H15 C22 1_555 1_555
C23 N2 1_555 1_555
C24 C23 1_555 1_555
H16 C24 1_555 1_555
C25 C24 1_555 1_555
H17 C25 1_555 1_555
C26 C25 1_555 1_555
C27 C26 1_555 1_555
H18 C27 1_555 1_555
C28 C23 1_555 1_555
H19 C28 1_555 1_555
C29 N2 1_555 1_555
H20 C29 1_555 1_555
C30 N5 1_555 1_555
C31 C30 1_555 1_555
N7 Pd2 1_555 1_555
C32 N7 1_555 1_555
C33 C32 1_555 1_555
H21 C33 1_555 1_555
H22 C33 1_555 1_555
H23 C33 1_555 1_555
O1 C10 1_555 1_555
O2 C26 1_555 1_555
B1 F1 1_555 1_555
F2 B1 1_555 1_555
F3 B1 1_555 1_555
F4 B1 1_555 1_555
B2 F5 1_555 1_555
F6 B2 1_555 1_555
F7 B2 1_555 1_555
B3 F8 1_555 1_555
F9 B3 1_555 1_555
B4 F10 1_555 1_555
F11 B4 1_555 1_555
F12 B5 1_555 1_555
F13 B5 1_555 1_555
B5 F14 1_555 1_555
N1R C6R 1_555 1_555
N2R C23R 1_555 1_555
N3R Pd1 1_555 1_555
N6R C1R 1_555 1_555
C1R C2R 1_555 1_555
C2R H1R 1_555 1_555
C3R C2R 1_555 1_555
H2R C3R 1_555 1_555
C4R C3R 1_555 1_555
H3R C4R 1_555 1_555
C5R N6R 1_555 1_555
C6R C5R 1_555 1_555
H4R C6R 1_555 1_555
C7R N1R 1_555 1_555
C8R C7R 1_555 1_555
H5R C8R 1_555 1_555
C9R C8R 1_555 1_555
H6R C9R 1_555 1_555
C10R C9R 1_555 1_555
C11R C10R 1_555 1_555
H7R C11R 1_555 1_555
C12R C7R 1_555 1_555
H8R C12R 1_555 1_555
C13R C14R 1_555 1_555
C14R H9R 1_555 1_555
C15R C14R 1_555 1_555
H10R C15R 1_555 1_555
C16R N3R 1_555 1_555
C17R C16R 1_555 1_555
H11R C17R 1_555 1_555
C18R C13R 1_555 1_555
H12R C18R 1_555 1_555
C19R N3R 1_555 1_555
H13R C19R 1_555 1_555
C20R N4 1_555 1_555
C21R C22 1_555 1_555
H14R C21R 1_555 1_555
C23R C24R 1_555 1_555
C24R H16R 1_555 1_555
C25R C24R 1_555 1_555
H17R C25R 1_555 1_555
C26R O2 1_555 1_555
C27R C26R 1_555 1_555
H18R C27R 1_555 1_555
C28R C23R 1_555 1_555
H19R C28R 1_555 1_555
C29R N2R 1_555 1_555
H20R C29R 1_555 1_555
O1R C10R 1_555 1_555
Pd2R N1R 1_555 1_555
N7R Pd2R 1_555 1_555
C32R N7R 1_555 1_555
C33R C32R 1_555 1_555
H21R C33R 1_555 1_555
H22R C33R 1_555 1_555
H23R C33R 1_555 1_555
F5S B2 1_555 1_555
F8B B3 1_555 1_555
F9B B3 1_555 1_555
F10A B4 1_555 1_555
F11A B4 1_555 1_555
F12S B5 1_555 1_555
C1 C29 1_555 1_555
C4 C5 1_555 1_555
C11 C12 1_555 1_555
C13 O1 1_555 1_555
C17 C18 1_555 1_555
C19 C20 1_555 1_555
C27 C28 1_555 1_555
N2R Pd2R 1_555 1_555
N6R Pd2R 1_555 1_555
C1R C29R 1_555 1_555
C4R C5R 1_555 1_555
C11R C12R 1_555 1_555
C13R O1R 1_555 1_555
C15R C16R 1_555 1_555
C17R C18R 1_555 1_555
C19R C20R 1_555 1_555
C20R C21R 1_555 1_555
C25R C26R 1_555 1_555
C27R C28R 1_555 1_555

#END
