
#######################################################################
#
#                 Cambridge Crystallographic Data Centre
#                                CCDC 
#
#######################################################################
#
# If this CIF has been generated from an entry in the Cambridge 
# Structural Database, then it will include bibliographic, chemical, 
# crystal, experimental, refinement or atomic coordinate data resulting 
# from the CCDC's data processing and validation procedures.
#
#######################################################################

data_WAQNIN
_chemical_formula_moiety         'C72 H72 N4 O8 Ru4 4+,4(F6 P1 1-),C1 H3 N1 O2'
_chemical_name_systematic        
"bis(\m~2~-3,3'-Buta-1,3-diyne-1,4-diyldipyridine)-bis(\m~2~-oxalato)-tetrakis(\h^6^-p-cymene)-tetra-ruthenium tetrakis(hexafluorophosphate) nitromethane solvate"
_symmetry_cell_setting           monoclinic
_symmetry_space_group_name_H-M   'P 21/n'
_symmetry_Int_Tables_number      14
_space_group_name_Hall           '-P 2yn'
loop_
_symmetry_equiv_pos_site_id
_symmetry_equiv_pos_as_xyz
1 x,y,z
2 1/2-x,1/2+y,1/2-z
3 -x,-y,-z
4 1/2+x,1/2-y,1/2+z
_cell_length_a                   8.6300(17)
_cell_length_b                   35.969(7)
_cell_length_c                   13.430(3)
_cell_angle_alpha                90
_cell_angle_beta                 97.55(3)
_cell_angle_gamma                90
_cell_volume                     4132.7
_cell_formula_units_Z            2
loop_
_atom_site_label
_atom_site_type_symbol
_atom_site_fract_x
_atom_site_fract_y
_atom_site_fract_z
Ru1 Ru 0.56203(7) 0.147503(15) 0.02158(4)
Ru2 Ru 0.28678(7) 0.161439(15) 0.36621(4)
O1 O 0.2270(6) 0.15934(12) 0.2087(4)
O2 O 0.5101(6) 0.15899(12) 0.3187(3)
O3 O 0.3399(6) 0.15478(12) 0.0673(3)
O4 O 0.6206(7) 0.15305(13) 0.1780(4)
N1 N 0.3016(7) 0.10307(16) 0.3553(4)
N2 N 0.5167(7) 0.09110(16) 0.0556(4)
C1 C 0.3444(10) 0.15746(18) 0.1620(6)
C2 C 0.5042(10) 0.15697(18) 0.2243(5)
C3 C 0.1516(9) 0.2119(2) 0.3725(5)
H1 H 0.1153 0.2251 0.3081
C4 C 0.3029(9) 0.21920(19) 0.4198(5)
H2 H 0.3704 0.2373 0.3887
C5 C 0.1288(10) 0.1585(2) 0.4791(6)
H3 H 0.0777 0.1342 0.4902
C6 C 0.0617(9) 0.1812(2) 0.4002(5)
C7 C 0.3734(9) 0.1944(2) 0.4994(5)
C8 C 0.2831(10) 0.16502(19) 0.5288(5)
H4 H 0.3357 0.1451 0.5729
C9 C 0.5402(9) 0.2018(2) 0.5425(6)
H5 H 0.5968 0.2102 0.4862
C10 C 0.6244(11) 0.1674(3) 0.5888(7)
H6 H 0.7325 0.1738 0.6149
H7 H 0.6242 0.1480 0.5375
H8 H 0.5706 0.1582 0.6438
C11 C 0.5406(11) 0.2336(3) 0.6152(8)
H9 H 0.6483 0.2390 0.6445
H10 H 0.4787 0.2268 0.6687
H11 H 0.4951 0.2556 0.5797
C12 C -0.0962(10) 0.1730(2) 0.3452(7)
H12 H -0.1206 0.1466 0.3531
H13 H -0.0973 0.1787 0.2738
H14 H -0.1745 0.1883 0.3727
C13 C 0.1946(9) 0.08365(19) 0.2964(5)
H15 H 0.1102 0.0967 0.2596
C14 C 0.4213(10) 0.0842(2) 0.4051(5)
H16 H 0.5002 0.0978 0.4457
C15 C 0.4361(10) 0.0461(2) 0.4006(5)
H17 H 0.5219 0.0339 0.4385
C16 C 0.2001(9) 0.04484(19) 0.2860(5)
C17 C 0.3243(10) 0.0260(2) 0.3402(5)
H18 H 0.3322 -0.0003 0.3358
C18 C 0.0868(10) 0.0264(2) 0.2185(6)
C19 C -0.0102(10) 0.0112(2) 0.1597(6)
C20 C -0.1229(10) -0.0061(2) 0.0920(5)
C21 C -0.2233(10) -0.02064(19) 0.0371(5)
C22 C -0.3517(9) -0.03795(19) -0.0239(5)
C23 C 0.3975(9) 0.07424(19) 0.0016(5)
H19 H 0.3415 0.0870 -0.0538
C24 C -0.4372(10) -0.0196(2) -0.1050(6)
H20 H -0.4095 0.0050 -0.1219
C25 C -0.5614(9) -0.03716(19) -0.1600(5)
H21 H -0.6214 -0.0249 -0.2149
C26 C 0.5975(9) 0.0732(2) 0.1338(5)
H22 H 0.6822 0.0856 0.1724
C27 C 0.4903(11) 0.1639(2) -0.1334(6)
H23 H 0.3803 0.1592 -0.1647
C28 C 0.5259(10) 0.1967(2) -0.0740(5)
C29 C 0.6729(10) 0.1990(2) -0.0140(6)
H24 H 0.6899 0.2189 0.0386
C30 C 0.7829(10) 0.1693(2) -0.0114(6)
H25 H 0.8740 0.1691 0.0429
C31 C 0.7518(10) 0.1372(2) -0.0702(6)
C32 C 0.4019(10) 0.2251(2) -0.0693(6)
H26 H 0.4350 0.2427 -0.0149
H27 H 0.3049 0.2129 -0.0568
H28 H 0.3840 0.2386 -0.1333
C33 C 0.8626(11) 0.1054(2) -0.0684(6)
H29 H 0.7985 0.0822 -0.0750
C34 C 0.9442(17) 0.1083(4) -0.1623(10)
H30 H 1.0175 0.0875 -0.1637
H31 H 1.0014 0.1318 -0.1613
H32 H 0.8661 0.1073 -0.2222
C35 C 0.6024(10) 0.1352(2) -0.1326(6)
H33 H 0.5674 0.1106 -0.1618
C36 C 0.9737(11) 0.1021(2) 0.0264(7)
H34 H 1.0416 0.0805 0.0221
H35 H 0.9147 0.0991 0.0834
H36 H 1.0377 0.1247 0.0360
Ru1B Ru -0.56203(7) -0.147503(15) -0.02158(4)
Ru2B Ru -0.28678(7) -0.161439(15) -0.36621(4)
O1B O -0.2270(6) -0.15934(12) -0.2087(4)
O2B O -0.5101(6) -0.15899(12) -0.3187(3)
O3B O -0.3399(6) -0.15478(12) -0.0673(3)
O4B O -0.6206(7) -0.15305(13) -0.1780(4)
N1B N -0.3016(7) -0.10307(16) -0.3553(4)
N2B N -0.5167(7) -0.09110(16) -0.0556(4)
C1B C -0.3444(10) -0.15746(18) -0.1620(6)
C2B C -0.5042(10) -0.15697(18) -0.2243(5)
C3B C -0.1516(9) -0.2119(2) -0.3725(5)
H1B H -0.1153 -0.2251 -0.3081
C4B C -0.3029(9) -0.21920(19) -0.4198(5)
H2B H -0.3704 -0.2373 -0.3887
C5B C -0.1288(10) -0.1585(2) -0.4791(6)
H3B H -0.0777 -0.1342 -0.4902
C6B C -0.0617(9) -0.1812(2) -0.4002(5)
C7B C -0.3734(9) -0.1944(2) -0.4994(5)
C8B C -0.2831(10) -0.16502(19) -0.5288(5)
H4B H -0.3357 -0.1451 -0.5729
C9B C -0.5402(9) -0.2018(2) -0.5425(6)
H5B H -0.5968 -0.2102 -0.4862
C10B C -0.6244(11) -0.1674(3) -0.5888(7)
H6B H -0.7325 -0.1738 -0.6149
H7B H -0.6242 -0.1480 -0.5375
H8B H -0.5706 -0.1582 -0.6438
C11B C -0.5406(11) -0.2336(3) -0.6152(8)
H9B H -0.6483 -0.2390 -0.6445
H10B H -0.4787 -0.2268 -0.6687
H11B H -0.4951 -0.2556 -0.5797
C12B C 0.0962(10) -0.1730(2) -0.3452(7)
H12B H 0.1206 -0.1466 -0.3531
H13B H 0.0973 -0.1787 -0.2738
H14B H 0.1745 -0.1883 -0.3727
C13B C -0.1946(9) -0.08365(19) -0.2964(5)
H15B H -0.1102 -0.0967 -0.2596
C14B C -0.4213(10) -0.0842(2) -0.4051(5)
H16B H -0.5002 -0.0978 -0.4457
C15B C -0.4361(10) -0.0461(2) -0.4006(5)
H17B H -0.5219 -0.0339 -0.4385
C16B C -0.2001(9) -0.04484(19) -0.2860(5)
C17B C -0.3243(10) -0.0260(2) -0.3402(5)
H18B H -0.3322 0.0003 -0.3358
C18B C -0.0868(10) -0.0264(2) -0.2185(6)
C19B C 0.0102(10) -0.0112(2) -0.1597(6)
C20B C 0.1229(10) 0.0061(2) -0.0920(5)
C21B C 0.2233(10) 0.02064(19) -0.0371(5)
C22B C 0.3517(9) 0.03795(19) 0.0239(5)
C23B C -0.3975(9) -0.07424(19) -0.0016(5)
H19B H -0.3415 -0.0870 0.0538
C24B C 0.4372(10) 0.0196(2) 0.1050(6)
H20B H 0.4095 -0.0050 0.1219
C25B C 0.5614(9) 0.03716(19) 0.1600(5)
H21B H 0.6214 0.0249 0.2149
C26B C -0.5975(9) -0.0732(2) -0.1338(5)
H22B H -0.6822 -0.0856 -0.1724
C27B C -0.4903(11) -0.1639(2) 0.1334(6)
H23B H -0.3803 -0.1592 0.1647
C28B C -0.5259(10) -0.1967(2) 0.0740(5)
C29B C -0.6729(10) -0.1990(2) 0.0140(6)
H24B H -0.6899 -0.2189 -0.0386
C30B C -0.7829(10) -0.1693(2) 0.0114(6)
H25B H -0.8740 -0.1691 -0.0429
C31B C -0.7518(10) -0.1372(2) 0.0702(6)
C32B C -0.4019(10) -0.2251(2) 0.0693(6)
H26B H -0.4350 -0.2427 0.0149
H27B H -0.3049 -0.2129 0.0568
H28B H -0.3840 -0.2386 0.1333
C33B C -0.8626(11) -0.1054(2) 0.0684(6)
H29B H -0.7985 -0.0822 0.0750
C34B C -0.9442(17) -0.1083(4) 0.1623(10)
H30B H -1.0175 -0.0875 0.1637
H31B H -1.0014 -0.1318 0.1613
H32B H -0.8661 -0.1073 0.2222
C35B C -0.6024(10) -0.1352(2) 0.1326(6)
H33B H -0.5674 -0.1106 0.1618
C36B C -0.9737(11) -0.1021(2) -0.0264(7)
H34B H -1.0416 -0.0805 -0.0221
H35B H -0.9147 -0.0991 -0.0834
H36B H -1.0377 -0.1247 -0.0360
P1 P 0.3329(3) 0.06285(6) 0.67826(14)
F1 F 0.4418(7) 0.05057(13) 0.7781(3)
F2 F 0.2839(7) 0.09931(14) 0.7334(4)
F3 F 0.4747(6) 0.08448(16) 0.6427(4)
F4 F 0.1851(8) 0.04169(15) 0.7132(4)
F5 F 0.3758(7) 0.02598(14) 0.6240(4)
F6 F 0.2203(6) 0.07556(12) 0.5783(3)
P2 P 0.0382(3) 0.22830(6) -0.27824(15)
F7 F 0.1378(6) 0.19223(13) -0.2424(4)
F8 F 0.0950(6) 0.24873(14) -0.1744(4)
F9 F 0.1881(6) 0.24466(15) -0.3236(4)
F10 F -0.0617(6) 0.26463(12) -0.3148(3)
F11 F -0.1093(6) 0.21243(13) -0.2312(3)
F12 F -0.0199(6) 0.20855(13) -0.3824(3)
O5 O -0.1974(16) 0.0624(6) 0.5445(12)
O6 O -0.1433(16) 0.0706(4) 0.3889(12)
N3 N -0.155(2) 0.0660(10) 0.4712(12)
C37 C -0.079(4) 0.0339(11) 0.4774(14)
H37 H -0.0294 0.0302 0.4165
H38 H -0.1528 0.0136 0.4838
H39 H 0.0012 0.0342 0.5362
loop_
_geom_bond_atom_site_label_1
_geom_bond_atom_site_label_2
_geom_bond_site_symmetry_1
_geom_bond_site_symmetry_2
Ru1 O3 1_555 1_555
Ru2 O1 1_555 1_555
P1 F1 1_555 1_555
P2 F7 1_555 1_555
F2 P1 1_555 1_555
F3 P1 1_555 1_555
F4 P1 1_555 1_555
F5 P1 1_555 1_555
F6 P1 1_555 1_555
F8 P2 1_555 1_555
F9 P2 1_555 1_555
F10 P2 1_555 1_555
F11 P2 1_555 1_555
F12 P2 1_555 1_555
O1 C1 1_555 1_555
O2 Ru2 1_555 1_555
O3 C1 1_555 1_555
O4 Ru1 1_555 1_555
N1 Ru2 1_555 1_555
N2 Ru1 1_555 1_555
C1 C2 1_555 1_555
C2 O2 1_555 1_555
C3 Ru2 1_555 1_555
H1 C3 1_555 1_555
C4 Ru2 1_555 1_555
H2 C4 1_555 1_555
C5 Ru2 1_555 1_555
H3 C5 1_555 1_555
C6 Ru2 1_555 1_555
C7 Ru2 1_555 1_555
C8 Ru2 1_555 1_555
H4 C8 1_555 1_555
C9 C7 1_555 1_555
H5 C9 1_555 1_555
C10 C9 1_555 1_555
H6 C10 1_555 1_555
H7 C10 1_555 1_555
H8 C10 1_555 1_555
C11 C9 1_555 1_555
H9 C11 1_555 1_555
H10 C11 1_555 1_555
H11 C11 1_555 1_555
C12 C6 1_555 1_555
H12 C12 1_555 1_555
H13 C12 1_555 1_555
H14 C12 1_555 1_555
C13 N1 1_555 1_555
H15 C13 1_555 1_555
C14 N1 1_555 1_555
H16 C14 1_555 1_555
C15 C14 1_555 1_555
H17 C15 1_555 1_555
C16 C13 1_555 1_555
C17 C15 1_555 1_555
H18 C17 1_555 1_555
C18 C16 1_555 1_555
C19 C18 1_555 1_555
C20 C19 1_555 1_555
C21 C20 1_555 1_555
C22 C21 1_555 1_555
C23 N2 1_555 1_555
H19 C23 1_555 1_555
C24 C22 1_555 1_555
H20 C24 1_555 1_555
C25 C24 1_555 1_555
H21 C25 1_555 1_555
C26 N2 1_555 1_555
H22 C26 1_555 1_555
C27 Ru1 1_555 1_555
H23 C27 1_555 1_555
C28 Ru1 1_555 1_555
C29 Ru1 1_555 1_555
H24 C29 1_555 1_555
C30 Ru1 1_555 1_555
H25 C30 1_555 1_555
C31 Ru1 1_555 1_555
C32 C28 1_555 1_555
H26 C32 1_555 1_555
H27 C32 1_555 1_555
H28 C32 1_555 1_555
C33 C31 1_555 1_555
H29 C33 1_555 1_555
C34 C33 1_555 1_555
H30 C34 1_555 1_555
H31 C34 1_555 1_555
H32 C34 1_555 1_555
C35 Ru1 1_555 1_555
H33 C35 1_555 1_555
C36 C33 1_555 1_555
H34 C36 1_555 1_555
H35 C36 1_555 1_555
H36 C36 1_555 1_555
O5 N3 1_555 1_555
O6 N3 1_555 1_555
N3 C37 1_555 1_555
C37 H37 1_555 1_555
H38 C37 1_555 1_555
H39 C37 1_555 1_555
Ru1B O3B 1_555 1_555
Ru2B O1B 1_555 1_555
O1B C1B 1_555 1_555
O2B Ru2B 1_555 1_555
O3B C1B 1_555 1_555
O4B Ru1B 1_555 1_555
N1B Ru2B 1_555 1_555
N2B Ru1B 1_555 1_555
C1B C2B 1_555 1_555
C2B O2B 1_555 1_555
C3B Ru2B 1_555 1_555
H1B C3B 1_555 1_555
C4B Ru2B 1_555 1_555
H2B C4B 1_555 1_555
C5B Ru2B 1_555 1_555
H3B C5B 1_555 1_555
C6B Ru2B 1_555 1_555
C7B Ru2B 1_555 1_555
C8B Ru2B 1_555 1_555
H4B C8B 1_555 1_555
C9B C7B 1_555 1_555
H5B C9B 1_555 1_555
C10B C9B 1_555 1_555
H6B C10B 1_555 1_555
H7B C10B 1_555 1_555
H8B C10B 1_555 1_555
C11B C9B 1_555 1_555
H9B C11B 1_555 1_555
H10B C11B 1_555 1_555
H11B C11B 1_555 1_555
C12B C6B 1_555 1_555
H12B C12B 1_555 1_555
H13B C12B 1_555 1_555
H14B C12B 1_555 1_555
C13B N1B 1_555 1_555
H15B C13B 1_555 1_555
C14B N1B 1_555 1_555
H16B C14B 1_555 1_555
C15B C14B 1_555 1_555
H17B C15B 1_555 1_555
C16B C13B 1_555 1_555
C17B C15B 1_555 1_555
H18B C17B 1_555 1_555
C18B C16B 1_555 1_555
C19B C18B 1_555 1_555
C20B C19B 1_555 1_555
C21B C20B 1_555 1_555
C22B C23 1_555 1_555
C23B C22 1_555 1_555
H19B C23B 1_555 1_555
C24B C22B 1_555 1_555
H20B C24B 1_555 1_555
C25B C26 1_555 1_555
H21B C25B 1_555 1_555
C26B C25 1_555 1_555
H22B C26B 1_555 1_555
C27B Ru1B 1_555 1_555
H23B C27B 1_555 1_555
C28B Ru1B 1_555 1_555
C29B Ru1B 1_555 1_555
H24B C29B 1_555 1_555
C30B Ru1B 1_555 1_555
H25B C30B 1_555 1_555
C31B Ru1B 1_555 1_555
C32B C28B 1_555 1_555
H26B C32B 1_555 1_555
H27B C32B 1_555 1_555
H28B C32B 1_555 1_555
C33B C31B 1_555 1_555
H29B C33B 1_555 1_555
C34B C33B 1_555 1_555
H30B C34B 1_555 1_555
H31B C34B 1_555 1_555
H32B C34B 1_555 1_555
C35B Ru1B 1_555 1_555
H33B C35B 1_555 1_555
C36B C33B 1_555 1_555
H34B C36B 1_555 1_555
H35B C36B 1_555 1_555
H36B C36B 1_555 1_555
O4 C2 1_555 1_555
C3 C4 1_555 1_555
C3 C6 1_555 1_555
C4 C7 1_555 1_555
C5 C6 1_555 1_555
C5 C8 1_555 1_555
C7 C8 1_555 1_555
C16 C17 1_555 1_555
C27 C28 1_555 1_555
C27 C35 1_555 1_555
C28 C29 1_555 1_555
C29 C30 1_555 1_555
C30 C31 1_555 1_555
C31 C35 1_555 1_555
O4B C2B 1_555 1_555
N2B C23B 1_555 1_555
N2B C26B 1_555 1_555
C3B C4B 1_555 1_555
C3B C6B 1_555 1_555
C4B C7B 1_555 1_555
C5B C6B 1_555 1_555
C5B C8B 1_555 1_555
C7B C8B 1_555 1_555
C16B C17B 1_555 1_555
C21B C22B 1_555 1_555
C24B C25B 1_555 1_555
C27B C28B 1_555 1_555
C27B C35B 1_555 1_555
C28B C29B 1_555 1_555
C29B C30B 1_555 1_555
C30B C31B 1_555 1_555
C31B C35B 1_555 1_555

#END
