
#######################################################################
#
#                 Cambridge Crystallographic Data Centre
#                                CCDC 
#
#######################################################################
#
# If this CIF has been generated from an entry in the Cambridge 
# Structural Database, then it will include bibliographic, chemical, 
# crystal, experimental, refinement or atomic coordinate data resulting 
# from the CCDC's data processing and validation procedures.
#
#######################################################################

data_WIBXAH
_chemical_formula_moiety         'C130 H172 N4 O2 P8 Pt4 4+,4(N1 O3 1-)'
_chemical_name_systematic        
'bis(\m~2~-5-Benzyloxyphenylene-1,3-diethynylbis(4-pyridyl))-bis(\m~2~-phenanthren-3,6-diyl)-octakis(triethylphosphine)-tetra-platinum(ii) tetranitrate'
_symmetry_cell_setting           triclinic
_symmetry_space_group_name_H-M   'P -1'
_symmetry_Int_Tables_number      2
_space_group_name_Hall           '-P 1'
loop_
_symmetry_equiv_pos_site_id
_symmetry_equiv_pos_as_xyz
1 x,y,z
2 -x,-y,-z
_cell_length_a                   10.050(2)
_cell_length_b                   18.319(4)
_cell_length_c                   21.396(5)
_cell_angle_alpha                76.932(4)
_cell_angle_beta                 80.904(4)
_cell_angle_gamma                78.553(4)
_cell_volume                     3734.26
_cell_formula_units_Z            1
_exptl_crystal_recrystallization_method pentane/dichloromethane/acetone
loop_
_atom_site_label
_atom_site_type_symbol
_atom_site_fract_x
_atom_site_fract_y
_atom_site_fract_z
C1 C 1.1369(14) -0.4525(9) 0.9443(7)
Pt1 Pt 1.67628(5) -0.29718(3) 1.29632(2)
Pt2 Pt 1.50098(5) 0.14827(3) 1.28827(2)
P1 P 1.8690(4) -0.2842(3) 1.2226(2)
P2 P 1.4983(4) -0.3138(2) 1.3768(2)
P3 P 1.6550(5) 0.1617(3) 1.1962(2)
P4 P 1.3513(5) 0.1323(3) 1.3820(2)
O1 O 1.2871(11) -0.6510(6) 0.9669(5)
N1 N 1.5859(11) -0.3448(6) 1.2350(5)
C2 C 1.7617(13) -0.2470(8) 1.3523(6)
N2 N 1.3460(12) 0.2232(7) 1.2368(5)
C3 C 2.028(2) -0.350(3) 1.2546(12)
H1 H 2.0361 -0.3452 1.2979
H2 H 2.1102 -0.3397 1.2265
C4 C 1.998(5) -0.432(3) 1.254(2)
H3 H 2.0344 -0.4458 1.2134
H4 H 2.0406 -0.4690 1.2881
H5 H 1.9011 -0.4319 1.2613
C5 C 1.8640(16) -0.3139(12) 1.1501(8)
H6 H 1.7878 -0.2822 1.1290
H7 H 1.8461 -0.3657 1.1609
C6 C 2.000(2) -0.3109(14) 1.0995(9)
H8 H 2.0710 -0.3513 1.1151
H9 H 1.9813 -0.3167 1.0584
H10 H 2.0293 -0.2629 1.0947
C7 C 1.887(6) -0.173(3) 1.193(2)
H11 H 1.9450 -0.1645 1.1517
H12 H 1.9240 -0.1548 1.2243
C8 C 1.746(9) -0.136(3) 1.186(3)
H13 H 1.7006 -0.1255 1.2265
H14 H 1.7452 -0.0886 1.1545
H15 H 1.6986 -0.1682 1.1710
C9 C 1.554(2) -0.3707(12) 1.4497(9)
H16 H 1.4752 -0.3771 1.4819
H17 H 1.6128 -0.3448 1.4658
C10 C 1.634(3) -0.4510(11) 1.4401(12)
H18 H 1.7154 -0.4450 1.4106
H19 H 1.6581 -0.4810 1.4810
H20 H 1.5771 -0.4761 1.4229
C11 C 1.3690(19) -0.3614(13) 1.3607(11)
H21 H 1.4163 -0.4100 1.3514
H22 H 1.3355 -0.3320 1.3209
C12 C 1.250(2) -0.3767(17) 1.4054(13)
H23 H 1.2786 -0.4081 1.4450
H24 H 1.1968 -0.3296 1.4139
H25 H 1.1965 -0.4025 1.3871
C13 C 1.416(3) -0.2293(13) 1.4014(16)
H26 H 1.3465 -0.2392 1.4379
H27 H 1.4804 -0.2031 1.4128
C14 C 1.339(4) -0.1750(15) 1.331(2)
H28 H 1.2712 -0.2004 1.3220
H29 H 1.2972 -0.1253 1.3379
H30 H 1.4086 -0.1703 1.2942
C15 C 1.5016(14) -0.2985(8) 1.1944(7)
H31 H 1.4863 -0.2465 1.1935
C16 C 1.4362(14) -0.3254(8) 1.1534(6)
H32 H 1.3754 -0.2924 1.1271
C17 C 1.4638(14) -0.4016(8) 1.1532(6)
C18 C 1.5510(15) -0.4498(8) 1.1964(7)
H33 H 1.5690 -0.5020 1.1983
C19 C 1.6079(15) -0.4189(8) 1.2349(7)
H34 H 1.6660 -0.4512 1.2630
C20 C 1.4008(14) -0.4307(9) 1.1092(6)
C21 C 1.3504(15) -0.4526(9) 1.0726(7)
C22 C 1.2905(14) -0.4778(9) 1.0261(7)
C23 C 1.3267(15) -0.5529(9) 1.0202(7)
H35 H 1.3896 -0.5864 1.0451
C24 C 1.2647(15) -0.5778(9) 0.9748(7)
C25 C 1.3710(17) -0.7094(9) 1.0077(7)
H36 H 1.4666 -0.7047 0.9955
H37 H 1.3464 -0.7046 1.0524
C26 C 1.3492(18) -0.7832(9) 0.9998(6)
C27 C 1.2211(18) -0.8048(10) 1.0159(7)
H38 H 1.1485 -0.7711 1.0317
C28 C 1.197(2) -0.8747(12) 1.0093(8)
H39 H 1.1105 -0.8877 1.0205
C29 C 1.303(3) -0.9235(12) 0.9862(11)
H40 H 1.2893 -0.9715 0.9842
C30 C 1.427(3) -0.9050(12) 0.9663(11)
H41 H 1.4947 -0.9374 0.9463
C31 C 1.453(2) -0.8343(11) 0.9761(9)
H42 H 1.5415 -0.8232 0.9663
C32 C 1.1975(14) -0.4252(9) 0.9877(7)
H43 H 1.1770 -0.3743 0.9910
C33 C 1.1705(14) -0.5275(8) 0.9391(7)
H44 H 1.1285 -0.5447 0.9107
C34 C 1.7340(13) -0.1716(9) 1.3478(6)
H45 H 1.6675 -0.1437 1.3221
C35 C 1.8018(12) -0.1310(9) 1.3807(6)
C36 C 1.8998(12) -0.1803(9) 1.4206(6)
C37 C 1.9206(13) -0.2569(9) 1.4290(6)
H46 H 1.9810 -0.2868 1.4571
C38 C 1.8515(14) -0.2902(10) 1.3955(7)
H47 H 1.8651 -0.3429 1.4017
C39 C 1.7788(12) -0.0499(9) 1.3759(6)
C40 C 1.8544(13) -0.0167(9) 1.4076(6)
C41 C 1.9591(14) -0.0654(11) 1.4451(7)
H48 H 2.0122 -0.0430 1.4647
C42 C 1.9818(14) -0.1399(13) 1.4523(7)
H49 H 2.0491 -0.1686 1.4772
C43 C 1.6761(11) 0.0002(7) 1.3394(6)
H50 H 1.6259 -0.0205 1.3169
C44 C 1.6492(14) 0.0770(9) 1.3365(6)
C45 C 1.7322(15) 0.1060(10) 1.3696(7)
H51 H 1.7202 0.1582 1.3671
C46 C 1.8298(15) 0.0590(10) 1.4052(8)
H52 H 1.8797 0.0796 1.4279
C47 C 1.829(2) 0.136(2) 1.2054(12)
H53 H 1.8452 0.0863 1.2330
H54 H 1.8552 0.1721 1.2264
C48 C 1.919(3) 0.135(2) 1.1396(15)
H55 H 1.9167 0.1862 1.1152
H56 H 2.0120 0.1131 1.1471
H57 H 1.8856 0.1055 1.1160
C49 C 1.173(3) 0.1354(19) 1.3729(16)
H58 H 1.1258 0.1079 1.4115
H59 H 1.1647 0.1144 1.3361
C50 C 1.115(6) 0.222(3) 1.362(2)
H60 H 1.1843 0.2498 1.3370
H61 H 1.0366 0.2328 1.3390
H62 H 1.0899 0.2372 1.4029
C51 C 1.361(6) 0.194(3) 1.433(2)
H63 H 1.3203 0.1804 1.4755
C52 C 1.416(5) 0.254(2) 1.421(2)
H64 H 1.3740 0.2906 1.3869
H65 H 1.4031 0.2751 1.4590
H66 H 1.5121 0.2411 1.4076
C53 C 1.383(2) 0.0401(18) 1.4399(10)
H67 H 1.3248 0.0445 1.4802
H68 H 1.4768 0.0306 1.4488
C54 C 1.357(3) -0.0267(18) 1.4177(19)
H69 H 1.4372 -0.0470 1.3923
H70 H 1.3341 -0.0650 1.4545
H71 H 1.2820 -0.0112 1.3920
C55 C 1.2683(17) 0.1941(10) 1.2066(9)
H72 H 1.2834 0.1418 1.2090
C56 C 1.1661(16) 0.2395(10) 1.1719(8)
H73 H 1.1127 0.2172 1.1524
C57 C 1.1429(15) 0.3171(9) 1.1660(7)
C58 C 1.2271(15) 0.3455(9) 1.1972(6)
H74 H 1.2173 0.3977 1.1942
C59 C 1.3211(16) 0.2990(8) 1.2312(7)
H75 H 1.3728 0.3203 1.2525
C60 C 1.0434(15) 0.3631(9) 1.1288(8)
C61 C 1.0410(15) -0.4022(9) 0.9047(7)
C62 C 1.731(8) 0.292(4) 1.207(3)
H76 H 1.7707 0.2475 1.2351
H77 H 1.8017 0.3198 1.1836
H78 H 1.6668 0.3240 1.2317
C63 C 1.640(5) 0.264(3) 1.148(2)
H79 H 1.5468 0.2905 1.1463
H80 H 1.6900 0.2685 1.1048
C64 C 1.587(6) 0.137(7) 1.120(2)
H81 H 1.6502 0.1451 1.0813
H82 H 1.4969 0.1653 1.1127
C65 C 1.585(5) 0.051(2) 1.1482(16)
H83 H 1.5125 0.0458 1.1833
H84 H 1.5693 0.0275 1.1150
H85 H 1.6707 0.0275 1.1637
C1A C 0.8631(14) 0.4525(9) 1.0557(7)
Pt1A Pt 0.32372(5) 0.29718(3) 0.70368(2)
Pt2A Pt 0.49902(5) -0.14827(3) 0.71173(2)
P1A P 0.1310(4) 0.2842(3) 0.7774(2)
P2A P 0.5017(4) 0.3138(2) 0.6232(2)
P3A P 0.3450(5) -0.1617(3) 0.8038(2)
P4A P 0.6487(5) -0.1323(3) 0.6180(2)
O1A O 0.7129(11) 0.6510(6) 1.0331(5)
N1A N 0.4141(11) 0.3448(6) 0.7650(5)
C2A C 0.2383(13) 0.2470(8) 0.6477(6)
N2A N 0.6540(12) -0.2232(7) 0.7632(5)
C3A C -0.028(2) 0.350(3) 0.7454(12)
H1A H -0.0361 0.3452 0.7021
H2A H -0.1102 0.3397 0.7735
C4A C 0.002(5) 0.432(3) 0.746(2)
H3A H -0.0344 0.4458 0.7866
H4A H -0.0406 0.4690 0.7119
H5A H 0.0989 0.4319 0.7387
C5A C 0.1360(16) 0.3139(12) 0.8499(8)
H6A H 0.2122 0.2822 0.8710
H7A H 0.1539 0.3657 0.8391
C6A C 0.000(2) 0.3109(14) 0.9005(9)
H8A H -0.0710 0.3513 0.8849
H9A H 0.0187 0.3167 0.9416
H10A H -0.0293 0.2629 0.9053
C7A C 0.113(6) 0.173(3) 0.807(2)
H11A H 0.0550 0.1645 0.8483
H12A H 0.0760 0.1548 0.7757
C8A C 0.254(9) 0.136(3) 0.814(3)
H13A H 0.2994 0.1255 0.7735
H14A H 0.2548 0.0886 0.8455
H15A H 0.3014 0.1682 0.8290
C9A C 0.446(2) 0.3707(12) 0.5503(9)
H16A H 0.5248 0.3771 0.5181
H17A H 0.3872 0.3448 0.5342
C10A C 0.366(3) 0.4510(11) 0.5599(12)
H18A H 0.2846 0.4450 0.5894
H19A H 0.3419 0.4810 0.5190
H20A H 0.4229 0.4761 0.5771
C11A C 0.6310(19) 0.3614(13) 0.6393(11)
H21A H 0.5837 0.4100 0.6486
H22A H 0.6645 0.3320 0.6791
C12A C 0.750(2) 0.3767(17) 0.5946(13)
H23A H 0.7214 0.4081 0.5550
H24A H 0.8032 0.3296 0.5861
H25A H 0.8035 0.4025 0.6129
C13A C 0.584(3) 0.2293(13) 0.5986(16)
H26A H 0.6535 0.2392 0.5621
H27A H 0.5196 0.2031 0.5872
C14A C 0.661(4) 0.1750(15) 0.669(2)
H28A H 0.7288 0.2004 0.6780
H29A H 0.7028 0.1253 0.6621
H30A H 0.5914 0.1703 0.7058
C15A C 0.4984(14) 0.2985(8) 0.8056(7)
H31A H 0.5137 0.2465 0.8065
C16A C 0.5638(14) 0.3254(8) 0.8466(6)
H32A H 0.6246 0.2924 0.8729
C17A C 0.5362(14) 0.4016(8) 0.8468(6)
C18A C 0.4490(15) 0.4498(8) 0.8036(7)
H33A H 0.4310 0.5020 0.8017
C19A C 0.3921(15) 0.4189(8) 0.7651(7)
H34A H 0.3340 0.4512 0.7370
C20A C 0.5992(14) 0.4307(9) 0.8908(6)
C21A C 0.6496(15) 0.4526(9) 0.9274(7)
C22A C 0.7095(14) 0.4778(9) 0.9739(7)
C23A C 0.6733(15) 0.5529(9) 0.9798(7)
H35A H 0.6104 0.5864 0.9549
C24A C 0.7353(15) 0.5778(9) 1.0252(7)
C25A C 0.6290(17) 0.7094(9) 0.9923(7)
H36A H 0.5334 0.7047 1.0045
H37A H 0.6536 0.7046 0.9476
C26A C 0.6508(18) 0.7832(9) 1.0002(6)
C27A C 0.7789(18) 0.8048(10) 0.9841(7)
H38A H 0.8515 0.7711 0.9683
C28A C 0.803(2) 0.8747(12) 0.9907(8)
H39A H 0.8895 0.8877 0.9795
C29A C 0.697(3) 0.9235(12) 1.0138(11)
H40A H 0.7107 0.9715 1.0158
C30A C 0.573(3) 0.9050(12) 1.0337(11)
H41A H 0.5053 0.9374 1.0537
C31A C 0.547(2) 0.8343(11) 1.0239(9)
H42A H 0.4585 0.8232 1.0337
C32A C 0.8025(14) 0.4252(9) 1.0123(7)
H43A H 0.8230 0.3743 1.0090
C33A C 0.8295(14) 0.5275(8) 1.0609(7)
H44A H 0.8715 0.5447 1.0893
C34A C 0.2660(13) 0.1716(9) 0.6522(6)
H45A H 0.3325 0.1437 0.6779
C35A C 0.1982(12) 0.1310(9) 0.6193(6)
C36A C 0.1002(12) 0.1803(9) 0.5794(6)
C37A C 0.0794(13) 0.2569(9) 0.5710(6)
H46A H 0.0190 0.2868 0.5429
C38A C 0.1485(14) 0.2902(10) 0.6045(7)
H47A H 0.1349 0.3429 0.5983
C39A C 0.2212(12) 0.0499(9) 0.6241(6)
C40A C 0.1456(13) 0.0167(9) 0.5924(6)
C41A C 0.0409(14) 0.0654(11) 0.5549(7)
H48A H -0.0122 0.0430 0.5353
C42A C 0.0182(14) 0.1399(13) 0.5477(7)
H49A H -0.0491 0.1686 0.5228
C43A C 0.3239(11) -0.0002(7) 0.6606(6)
H50A H 0.3741 0.0205 0.6831
C44A C 0.3508(14) -0.0770(9) 0.6635(6)
C45A C 0.2678(15) -0.1060(10) 0.6304(7)
H51A H 0.2798 -0.1582 0.6329
C46A C 0.1702(15) -0.0590(10) 0.5948(8)
H52A H 0.1203 -0.0796 0.5721
C47A C 0.171(2) -0.136(2) 0.7946(12)
H53A H 0.1548 -0.0863 0.7670
H54A H 0.1448 -0.1721 0.7736
C48A C 0.081(3) -0.135(2) 0.8604(15)
H55A H 0.0833 -0.1862 0.8848
H56A H -0.0120 -0.1131 0.8529
H57A H 0.1144 -0.1055 0.8840
C49A C 0.827(3) -0.1354(19) 0.6271(16)
H58A H 0.8742 -0.1079 0.5885
H59A H 0.8353 -0.1144 0.6639
C50A C 0.885(6) -0.222(3) 0.638(2)
H60A H 0.8157 -0.2498 0.6630
H61A H 0.9634 -0.2328 0.6610
H62A H 0.9101 -0.2372 0.5971
C51A C 0.639(6) -0.194(3) 0.567(2)
H63A H 0.6797 -0.1804 0.5245
C52A C 0.584(5) -0.254(2) 0.579(2)
H64A H 0.6260 -0.2906 0.6131
H65A H 0.5969 -0.2751 0.5410
H66A H 0.4879 -0.2411 0.5924
C53A C 0.617(2) -0.0401(18) 0.5601(10)
H67A H 0.6752 -0.0445 0.5198
H68A H 0.5232 -0.0306 0.5512
C54A C 0.643(3) 0.0267(18) 0.5823(19)
H69A H 0.5628 0.0470 0.6077
H70A H 0.6659 0.0650 0.5455
H71A H 0.7180 0.0112 0.6080
C55A C 0.7317(17) -0.1941(10) 0.7934(9)
H72A H 0.7166 -0.1418 0.7910
C56A C 0.8339(16) -0.2395(10) 0.8281(8)
H73A H 0.8873 -0.2172 0.8476
C57A C 0.8571(15) -0.3171(9) 0.8340(7)
C58A C 0.7729(15) -0.3455(9) 0.8028(6)
H74A H 0.7827 -0.3977 0.8058
C59A C 0.6789(16) -0.2990(8) 0.7688(7)
H75A H 0.6272 -0.3203 0.7475
C60A C 0.9566(15) -0.3631(9) 0.8712(8)
C61A C 0.9590(15) 0.4022(9) 1.0953(7)
C62A C 0.269(8) -0.292(4) 0.793(3)
H76A H 0.2293 -0.2475 0.7649
H77A H 0.1983 -0.3198 0.8164
H78A H 0.3332 -0.3240 0.7683
C63A C 0.360(5) -0.264(3) 0.852(2)
H79A H 0.4532 -0.2905 0.8537
H80A H 0.3100 -0.2685 0.8952
C64A C 0.413(6) -0.137(7) 0.880(2)
H81A H 0.3498 -0.1451 0.9187
H82A H 0.5031 -0.1653 0.8873
C65A C 0.415(5) -0.051(2) 0.8518(16)
H83A H 0.4875 -0.0458 0.8167
H84A H 0.4307 -0.0275 0.8850
H85A H 0.3293 -0.0275 0.8363
O2 O 0.512(2) 0.3867(11) 0.2941(12)
N3 N 0.426(3) 0.4266(11) 0.3241(14)
O4 O 0.440(3) 0.4494(10) 0.3733(11)
O5 O 0.319(3) 0.4426(14) 0.3008(15)
O3 O 0.155(4) 0.897(3) 0.033(3)
N4 N 0.195(3) 0.834(2) 0.0427(17)
O6 O 0.2068(18) 0.8234(12) 0.1004(11)
O7 O 0.250(3) 0.767(2) 0.0187(11)
loop_
_geom_bond_atom_site_label_1
_geom_bond_atom_site_label_2
_geom_bond_site_symmetry_1
_geom_bond_site_symmetry_2
C1 C32 1_555 1_555
Pt1 P1 1_555 1_555
Pt2 P3 1_555 1_555
P1 C3 1_555 1_555
P2 Pt1 1_555 1_555
P3 C47 1_555 1_555
P4 Pt2 1_555 1_555
O1 C24 1_555 1_555
O2 N3 1_555 1_555
O3 N4 1_555 1_555
N1 Pt1 1_555 1_555
C2 Pt1 1_555 1_555
N2 Pt2 1_555 1_555
C3 H1 1_555 1_555
H2 C3 1_555 1_555
C4 C3 1_555 1_555
H3 C4 1_555 1_555
H4 C4 1_555 1_555
H5 C4 1_555 1_555
C5 P1 1_555 1_555
H6 C5 1_555 1_555
H7 C5 1_555 1_555
C6 C5 1_555 1_555
H8 C6 1_555 1_555
H9 C6 1_555 1_555
H10 C6 1_555 1_555
C7 P1 1_555 1_555
H11 C7 1_555 1_555
H12 C7 1_555 1_555
C8 C7 1_555 1_555
H13 C8 1_555 1_555
H14 C8 1_555 1_555
H15 C8 1_555 1_555
C9 P2 1_555 1_555
H16 C9 1_555 1_555
H17 C9 1_555 1_555
C10 C9 1_555 1_555
H18 C10 1_555 1_555
H19 C10 1_555 1_555
H20 C10 1_555 1_555
C11 P2 1_555 1_555
H21 C11 1_555 1_555
H22 C11 1_555 1_555
C12 C11 1_555 1_555
H23 C12 1_555 1_555
H24 C12 1_555 1_555
H25 C12 1_555 1_555
C13 P2 1_555 1_555
H26 C13 1_555 1_555
H27 C13 1_555 1_555
C14 C13 1_555 1_555
H28 C14 1_555 1_555
H29 C14 1_555 1_555
H30 C14 1_555 1_555
C15 N1 1_555 1_555
H31 C15 1_555 1_555
C16 C15 1_555 1_555
H32 C16 1_555 1_555
C17 C16 1_555 1_555
C18 C17 1_555 1_555
H33 C18 1_555 1_555
C19 N1 1_555 1_555
H34 C19 1_555 1_555
C20 C17 1_555 1_555
C21 C20 1_555 1_555
C22 C21 1_555 1_555
C23 C22 1_555 1_555
H35 C23 1_555 1_555
C24 C23 1_555 1_555
C25 O1 1_555 1_555
H36 C25 1_555 1_555
H37 C25 1_555 1_555
C26 C25 1_555 1_555
C27 C26 1_555 1_555
H38 C27 1_555 1_555
C28 C27 1_555 1_555
H39 C28 1_555 1_555
C29 C28 1_555 1_555
H40 C29 1_555 1_555
C30 C29 1_555 1_555
H41 C30 1_555 1_555
C31 C26 1_555 1_555
H42 C31 1_555 1_555
C32 C22 1_555 1_555
H43 C32 1_555 1_555
C33 C1 1_555 1_555
H44 C33 1_555 1_555
C34 C2 1_555 1_555
H45 C34 1_555 1_555
C35 C34 1_555 1_555
C36 C35 1_555 1_555
C37 C36 1_555 1_555
H46 C37 1_555 1_555
C38 C2 1_555 1_555
H47 C38 1_555 1_555
C39 C35 1_555 1_555
C40 C39 1_555 1_555
C41 C40 1_555 1_555
H48 C41 1_555 1_555
C42 C36 1_555 1_555
H49 C42 1_555 1_555
C43 C39 1_555 1_555
H50 C43 1_555 1_555
C44 Pt2 1_555 1_555
C45 C44 1_555 1_555
H51 C45 1_555 1_555
C46 C40 1_555 1_555
H52 C46 1_555 1_555
C47 H53 1_555 1_555
H54 C47 1_555 1_555
C48 C47 1_555 1_555
H55 C48 1_555 1_555
H56 C48 1_555 1_555
H57 C48 1_555 1_555
C49 P4 1_555 1_555
H58 C49 1_555 1_555
H59 C49 1_555 1_555
C50 C49 1_555 1_555
H60 C50 1_555 1_555
H61 C50 1_555 1_555
H62 C50 1_555 1_555
C51 P4 1_555 1_555
H63 C51 1_555 1_555
C52 C51 1_555 1_555
H64 C52 1_555 1_555
H65 C52 1_555 1_555
H66 C52 1_555 1_555
C53 P4 1_555 1_555
H67 C53 1_555 1_555
H68 C53 1_555 1_555
C54 C53 1_555 1_555
H69 C54 1_555 1_555
H70 C54 1_555 1_555
H71 C54 1_555 1_555
C55 N2 1_555 1_555
H72 C55 1_555 1_555
C56 C55 1_555 1_555
H73 C56 1_555 1_555
C57 C56 1_555 1_555
C58 C57 1_555 1_555
H74 C58 1_555 1_555
C59 N2 1_555 1_555
H75 C59 1_555 1_555
C60 C57 1_555 1_555
C61 C1 1_555 1_555
N3 O4 1_555 1_555
O5 N3 1_555 1_555
N4 O6 1_555 1_555
O7 N4 1_555 1_555
C62 H76 1_555 1_555
H77 C62 1_555 1_555
H78 C62 1_555 1_555
C63 P3 1_555 1_555
H79 C63 1_555 1_555
H80 C63 1_555 1_555
C64 P3 1_555 1_555
H81 C64 1_555 1_555
H82 C64 1_555 1_555
C65 C64 1_555 1_555
H83 C65 1_555 1_555
H84 C65 1_555 1_555
H85 C65 1_555 1_555
C1A C32A 1_555 1_555
Pt1A P1A 1_555 1_555
Pt2A P3A 1_555 1_555
P1A C3A 1_555 1_555
P2A Pt1A 1_555 1_555
P3A C47A 1_555 1_555
P4A Pt2A 1_555 1_555
O1A C24A 1_555 1_555
N1A Pt1A 1_555 1_555
C2A Pt1A 1_555 1_555
N2A Pt2A 1_555 1_555
C3A H1A 1_555 1_555
H2A C3A 1_555 1_555
C4A C3A 1_555 1_555
H3A C4A 1_555 1_555
H4A C4A 1_555 1_555
H5A C4A 1_555 1_555
C5A P1A 1_555 1_555
H6A C5A 1_555 1_555
H7A C5A 1_555 1_555
C6A C5A 1_555 1_555
H8A C6A 1_555 1_555
H9A C6A 1_555 1_555
H10A C6A 1_555 1_555
C7A P1A 1_555 1_555
H11A C7A 1_555 1_555
H12A C7A 1_555 1_555
C8A C7A 1_555 1_555
H13A C8A 1_555 1_555
H14A C8A 1_555 1_555
H15A C8A 1_555 1_555
C9A P2A 1_555 1_555
H16A C9A 1_555 1_555
H17A C9A 1_555 1_555
C10A C9A 1_555 1_555
H18A C10A 1_555 1_555
H19A C10A 1_555 1_555
H20A C10A 1_555 1_555
C11A P2A 1_555 1_555
H21A C11A 1_555 1_555
H22A C11A 1_555 1_555
C12A C11A 1_555 1_555
H23A C12A 1_555 1_555
H24A C12A 1_555 1_555
H25A C12A 1_555 1_555
C13A P2A 1_555 1_555
H26A C13A 1_555 1_555
H27A C13A 1_555 1_555
C14A C13A 1_555 1_555
H28A C14A 1_555 1_555
H29A C14A 1_555 1_555
H30A C14A 1_555 1_555
C15A N1A 1_555 1_555
H31A C15A 1_555 1_555
C16A C15A 1_555 1_555
H32A C16A 1_555 1_555
C17A C16A 1_555 1_555
C18A C17A 1_555 1_555
H33A C18A 1_555 1_555
C19A N1A 1_555 1_555
H34A C19A 1_555 1_555
C20A C17A 1_555 1_555
C21A C20A 1_555 1_555
C22A C21A 1_555 1_555
C23A C22A 1_555 1_555
H35A C23A 1_555 1_555
C24A C23A 1_555 1_555
C25A O1A 1_555 1_555
H36A C25A 1_555 1_555
H37A C25A 1_555 1_555
C26A C25A 1_555 1_555
C27A C26A 1_555 1_555
H38A C27A 1_555 1_555
C28A C27A 1_555 1_555
H39A C28A 1_555 1_555
C29A C28A 1_555 1_555
H40A C29A 1_555 1_555
C30A C29A 1_555 1_555
H41A C30A 1_555 1_555
C31A C26A 1_555 1_555
H42A C31A 1_555 1_555
C32A C22A 1_555 1_555
H43A C32A 1_555 1_555
C33A C1A 1_555 1_555
H44A C33A 1_555 1_555
C34A C2A 1_555 1_555
H45A C34A 1_555 1_555
C35A C34A 1_555 1_555
C36A C35A 1_555 1_555
C37A C36A 1_555 1_555
H46A C37A 1_555 1_555
C38A C2A 1_555 1_555
H47A C38A 1_555 1_555
C39A C35A 1_555 1_555
C40A C39A 1_555 1_555
C41A C40A 1_555 1_555
H48A C41A 1_555 1_555
C42A C36A 1_555 1_555
H49A C42A 1_555 1_555
C43A C39A 1_555 1_555
H50A C43A 1_555 1_555
C44A Pt2A 1_555 1_555
C45A C44A 1_555 1_555
H51A C45A 1_555 1_555
C46A C40A 1_555 1_555
H52A C46A 1_555 1_555
C47A H53A 1_555 1_555
H54A C47A 1_555 1_555
C48A C47A 1_555 1_555
H55A C48A 1_555 1_555
H56A C48A 1_555 1_555
H57A C48A 1_555 1_555
C49A P4A 1_555 1_555
H58A C49A 1_555 1_555
H59A C49A 1_555 1_555
C50A C49A 1_555 1_555
H60A C50A 1_555 1_555
H61A C50A 1_555 1_555
H62A C50A 1_555 1_555
C51A P4A 1_555 1_555
H63A C51A 1_555 1_555
C52A C51A 1_555 1_555
H64A C52A 1_555 1_555
H65A C52A 1_555 1_555
H66A C52A 1_555 1_555
C53A P4A 1_555 1_555
H67A C53A 1_555 1_555
H68A C53A 1_555 1_555
C54A C53A 1_555 1_555
H69A C54A 1_555 1_555
H70A C54A 1_555 1_555
H71A C54A 1_555 1_555
C55A N2A 1_555 1_555
H72A C55A 1_555 1_555
C56A C55A 1_555 1_555
H73A C56A 1_555 1_555
C57A C56A 1_555 1_555
C58A C57A 1_555 1_555
H74A C58A 1_555 1_555
C59A N2A 1_555 1_555
H75A C59A 1_555 1_555
C60A C61 1_555 1_555
C61A C60 1_555 1_555
C62A H76A 1_555 1_555
H77A C62A 1_555 1_555
H78A C62A 1_555 1_555
C63A P3A 1_555 1_555
H79A C63A 1_555 1_555
H80A C63A 1_555 1_555
C64A P3A 1_555 1_555
H81A C64A 1_555 1_555
H82A C64A 1_555 1_555
C65A C64A 1_555 1_555
H83A C65A 1_555 1_555
H84A C65A 1_555 1_555
H85A C65A 1_555 1_555
C18 C19 1_555 1_555
C24 C33 1_555 1_555
C30 C31 1_555 1_555
C37 C38 1_555 1_555
C41 C42 1_555 1_555
C43 C44 1_555 1_555
C45 C46 1_555 1_555
C58 C59 1_555 1_555
C62 C63 1_555 1_555
C1A C61A 1_555 1_555
C18A C19A 1_555 1_555
C24A C33A 1_555 1_555
C30A C31A 1_555 1_555
C37A C38A 1_555 1_555
C41A C42A 1_555 1_555
C43A C44A 1_555 1_555
C45A C46A 1_555 1_555
C57A C60A 1_555 1_555
C58A C59A 1_555 1_555
C62A C63A 1_555 1_555

#END
