
#######################################################################
#
#                 Cambridge Crystallographic Data Centre
#                                CCDC 
#
#######################################################################
#
# If this CIF has been generated from an entry in the Cambridge 
# Structural Database, then it will include bibliographic, chemical, 
# crystal, experimental, refinement or atomic coordinate data resulting 
# from the CCDC's data processing and validation procedures.
#
#######################################################################

data_WITKEP
_chemical_formula_moiety         
'C84 H64 Co2 Fe2 N20 4+,4(F6 P1 1-),3(C1 H1 Cl3),2(C2 H3 N1)'
_chemical_name_systematic        
"tetrakis(\m~2~-Cyano)-octakis(2,2'-bipyridine)-di-cobalt(ii)-di-iron(ii) tetrakis(hexafluorophosphate) acetonitrile chloroform solvate"
_symmetry_cell_setting           triclinic
_symmetry_space_group_name_H-M   'P -1'
_symmetry_Int_Tables_number      2
_space_group_name_Hall           '-P 1'
loop_
_symmetry_equiv_pos_site_id
_symmetry_equiv_pos_as_xyz
1 x,y,z
2 -x,-y,-z
_cell_length_a                   13.501(3)
_cell_length_b                   14.138(3)
_cell_length_c                   29.243(6)
_cell_angle_alpha                77.43(3)
_cell_angle_beta                 81.04(3)
_cell_angle_gamma                82.32(3)
_cell_volume                     5352.67
_exptl_crystal_colour            'dark red'
_cell_formula_units_Z            2
_exptl_crystal_recrystallization_method acetonitrile/chloroform
loop_
_atom_site_label
_atom_site_type_symbol
_atom_site_fract_x
_atom_site_fract_y
_atom_site_fract_z
Fe1 Fe -0.04945(4) 0.24546(4) 0.17889(2)
Fe2 Fe 0.35263(5) 0.26601(5) 0.30074(3)
Co1 Co -0.02529(4) 0.31809(4) 0.33660(2)
Co2 Co 0.32251(4) 0.15324(5) 0.15143(2)
N1 N -0.0593(3) 0.2861(3) 0.27812(16)
N2 N 0.1206(3) 0.3026(3) 0.31344(15)
N3 N 0.3560(3) 0.1891(3) 0.20992(18)
N4 N 0.1778(3) 0.1990(3) 0.16841(15)
N5 N -0.0770(3) 0.1101(3) 0.20810(13)
N6 N -0.1976(3) 0.2589(3) 0.17889(13)
N7 N -0.0354(3) 0.2307(3) 0.11179(13)
N8 N -0.0265(3) 0.3813(3) 0.14666(13)
N9 N -0.0456(3) 0.4612(3) 0.30728(14)
N10 N -0.1741(3) 0.3495(4) 0.36087(15)
N11 N 0.0103(3) 0.3345(3) 0.39953(14)
N12 N -0.0116(3) 0.1770(3) 0.37151(14)
N13 N 0.3558(3) 0.1260(3) 0.33533(15)
N14 N 0.5035(3) 0.2340(3) 0.30405(14)
N15 N 0.3649(3) 0.4072(3) 0.27037(18)
N16 N 0.3444(3) 0.3218(4) 0.36004(19)
N17 N 0.3601(3) 0.2842(3) 0.11351(15)
N18 N 0.4708(3) 0.1184(3) 0.12706(17)
N19 N 0.2925(3) 0.0150(3) 0.18348(16)
N20 N 0.2823(3) 0.1053(3) 0.09602(15)
C1 C -0.0604(3) 0.2725(3) 0.24110(16)
C2 C 0.2058(3) 0.2876(3) 0.30666(17)
C3 C 0.3597(3) 0.2195(3) 0.24165(19)
C4 C 0.0942(3) 0.2172(3) 0.17556(15)
C5 C -0.2546(4) 0.3414(4) 0.16201(17)
H1 H -0.2234 0.3979 0.1493
C6 C -0.3578(4) 0.3448(4) 0.16305(18)
H2 H -0.3956 0.4026 0.1516
C7 C -0.4029(4) 0.2612(5) 0.18134(19)
H3 H -0.4722 0.2622 0.1826
C8 C -0.3465(4) 0.1760(4) 0.19777(18)
H4 H -0.3767 0.1188 0.2097
C9 C -0.2426(3) 0.1771(4) 0.19625(17)
C10 C -0.1745(4) 0.0931(3) 0.21452(17)
C11 C -0.2054(5) 0.0031(4) 0.2378(2)
H5 H -0.2730 -0.0075 0.2411
C12 C -0.1370(6) -0.0692(4) 0.2555(2)
H6 H -0.1570 -0.1295 0.2713
C13 C -0.0361(5) -0.0519(4) 0.2497(2)
H7 H 0.0120 -0.1002 0.2619
C14 C -0.0091(4) 0.0372(4) 0.22568(18)
H8 H 0.0584 0.0481 0.2213
C15 C -0.0501(4) 0.1504(4) 0.09658(18)
H9 H -0.0716 0.0964 0.1185
C16 C -0.0337(4) 0.1471(4) 0.04946(19)
H10 H -0.0419 0.0903 0.0400
C17 C -0.0057(5) 0.2259(5) 0.0164(2)
H11 H 0.0021 0.2247 -0.0156
C18 C 0.0109(4) 0.3082(4) 0.03170(19)
H12 H 0.0335 0.3620 0.0100
C19 C -0.0064(3) 0.3094(3) 0.07921(17)
C20 C 0.0030(3) 0.3939(3) 0.09949(16)
C21 C 0.0381(4) 0.4800(4) 0.07364(19)
H13 H 0.0611 0.4864 0.0416
C22 C 0.0384(4) 0.5556(4) 0.0960(2)
H14 H 0.0616 0.6140 0.0792
C23 C 0.0042(5) 0.5445(4) 0.1433(2)
H15 H 0.0016 0.5960 0.1587
C24 C -0.0260(4) 0.4566(3) 0.16755(19)
H16 H -0.0471 0.4490 0.1998
C25 C 0.0257(5) 0.5147(4) 0.2803(2)
H17 H 0.0921 0.4866 0.2772
C26 C 0.0039(6) 0.6091(5) 0.2574(2)
H18 H 0.0547 0.6443 0.2392
C27 C -0.0943(7) 0.6510(5) 0.2618(3)
H19 H -0.1106 0.7143 0.2458
C28 C -0.1670(6) 0.5995(5) 0.2895(3)
H20 H -0.2333 0.6276 0.2935
C29 C -0.1406(5) 0.5035(4) 0.3121(2)
C30 C -0.2135(4) 0.4397(5) 0.3431(2)
C31 C -0.3162(5) 0.4711(7) 0.3551(3)
H21 H -0.3431 0.5337 0.3425
C32 C -0.3753(6) 0.4071(9) 0.3857(3)
H22 H -0.4431 0.4263 0.3939
C33 C -0.3349(5) 0.3138(8) 0.4045(3)
H23 H -0.3741 0.2696 0.4254
C34 C -0.2341(4) 0.2900(6) 0.3908(2)
H24 H -0.2059 0.2279 0.4033
C35 C 0.0216(4) 0.4190(4) 0.41081(19)
H25 H 0.0115 0.4763 0.3886
C36 C 0.0474(5) 0.4248(5) 0.4535(2)
H26 H 0.0541 0.4850 0.4600
C37 C 0.0632(6) 0.3418(5) 0.4864(2)
H27 H 0.0803 0.3445 0.5156
C38 C 0.0533(5) 0.2524(5) 0.4754(2)
H28 H 0.0633 0.1946 0.4973
C39 C 0.0282(4) 0.2515(4) 0.43116(17)
C40 C 0.0193(4) 0.1614(4) 0.41460(18)
C41 C 0.0433(5) 0.0681(4) 0.4401(2)
H29 H 0.0661 0.0586 0.4693
C42 C 0.0324(5) -0.0101(4) 0.4208(2)
H30 H 0.0470 -0.0733 0.4372
C43 C -0.0001(5) 0.0053(4) 0.3773(2)
H31 H -0.0087 -0.0471 0.3644
C44 C -0.0199(4) 0.0994(4) 0.3531(2)
H32 H -0.0395 0.1096 0.3232
C45 C 0.2790(5) 0.0712(5) 0.3471(2)
H33 H 0.2155 0.1009 0.3407
C46 C 0.2869(5) -0.0240(5) 0.3676(3)
H34 H 0.2300 -0.0578 0.3758
C47 C 0.3783(7) -0.0694(6) 0.3759(3)
H35 H 0.3855 -0.1348 0.3906
C48 C 0.4617(5) -0.0172(5) 0.3622(3)
H36 H 0.5258 -0.0478 0.3667
C49 C 0.4484(4) 0.0797(4) 0.34203(19)
C50 C 0.5324(4) 0.1418(4) 0.32520(18)
C51 C 0.6328(4) 0.1110(5) 0.3303(2)
H37 H 0.6517 0.0473 0.3449
C52 C 0.7046(4) 0.1758(6) 0.3136(2)
H38 H 0.7721 0.1560 0.3168
C53 C 0.6755(4) 0.2685(5) 0.2923(2)
H39 H 0.7226 0.3132 0.2806
C54 C 0.5738(4) 0.2953(4) 0.28834(19)
H40 H 0.5540 0.3590 0.2741
C55 C 0.3753(5) 0.4449(5) 0.2246(3)
H41 H 0.3722 0.4048 0.2036
C56 C 0.3905(6) 0.5404(5) 0.2066(3)
H42 H 0.3982 0.5638 0.1741
C57 C 0.3944(7) 0.6010(6) 0.2366(4)
H43 H 0.4068 0.6655 0.2249
C58 C 0.3799(6) 0.5655(6) 0.2840(4)
H44 H 0.3811 0.6062 0.3049
C59 C 0.3632(4) 0.4683(5) 0.3011(3)
C60 C 0.3490(4) 0.4208(6) 0.3510(3)
C61 C 0.3366(6) 0.4684(7) 0.3892(4)
H45 H 0.3368 0.5357 0.3837
C62 C 0.3244(7) 0.4164(10) 0.4340(4)
H46 H 0.3173 0.4483 0.4592
C63 C 0.3223(7) 0.3163(10) 0.4430(3)
H47 H 0.3148 0.2797 0.4736
C64 C 0.3317(5) 0.2734(6) 0.4041(2)
H48 H 0.3290 0.2064 0.4094
C65 C 0.2994(4) 0.3696(4) 0.1120(2)
H49 H 0.2330 0.3684 0.1263
C66 C 0.3337(5) 0.4574(4) 0.0899(2)
H50 H 0.2909 0.5147 0.0895
C67 C 0.4305(6) 0.4603(5) 0.0684(3)
H51 H 0.4545 0.5194 0.0533
C68 C 0.4926(5) 0.3740(5) 0.0694(2)
H52 H 0.5589 0.3746 0.0549
C69 C 0.4562(4) 0.2876(4) 0.09195(18)
C70 C 0.5163(4) 0.1914(5) 0.0980(2)
C71 C 0.6157(5) 0.1770(6) 0.0781(2)
H53 H 0.6464 0.2280 0.0576
C72 C 0.6684(6) 0.0870(7) 0.0888(3)
H54 H 0.7354 0.0769 0.0759
C73 C 0.6226(6) 0.0118(6) 0.1186(3)
H55 H 0.6576 -0.0496 0.1259
C74 C 0.5221(5) 0.0295(5) 0.1376(3)
H56 H 0.4900 -0.0207 0.1580
C75 C 0.2998(4) -0.0248(4) 0.2285(2)
H57 H 0.3283 0.0088 0.2464
C76 C 0.2662(4) -0.1147(4) 0.2500(2)
H58 H 0.2722 -0.1410 0.2816
C77 C 0.2243(4) -0.1637(4) 0.2236(3)
H59 H 0.2010 -0.2238 0.2372
C78 C 0.2167(4) -0.1232(4) 0.1763(2)
H60 H 0.1881 -0.1555 0.1580
C79 C 0.2526(3) -0.0339(3) 0.15726(18)
C80 C 0.2480(3) 0.0162(4) 0.10757(19)
C81 C 0.2127(4) -0.0232(5) 0.0746(2)
H61 H 0.1902 -0.0848 0.0829
C82 C 0.2112(5) 0.0307(5) 0.0289(2)
H62 H 0.1865 0.0059 0.0064
C83 C 0.2458(4) 0.1196(5) 0.0172(2)
H63 H 0.2460 0.1560 -0.0134
C84 C 0.2808(4) 0.1557(5) 0.0514(2)
H64 H 0.3041 0.2170 0.0433
P1 P 0.94864(13) 0.84992(11) 0.11564(6)
F1 F 1.0001(3) 0.9273(2) 0.13406(13)
F2 F 0.9019(3) 0.7712(3) 0.09675(16)
F3 F 0.954(3) 0.9138(11) 0.0653(6)
F4 F 1.0516(10) 0.7969(17) 0.0995(11)
F5 F 0.949(3) 0.7834(10) 0.1639(5)
F6 F 0.8478(14) 0.904(2) 0.1293(12)
P2 P 0.10460(16) 0.70841(13) 0.36691(6)
F11 F 0.1573(5) 0.6549(6) 0.3274(2)
F12 F 0.0472(6) 0.7617(4) 0.40711(18)
F13 F 0.0617(6) 0.7910(4) 0.32942(19)
F14 F 0.1450(4) 0.6240(4) 0.4065(2)
F15 F 0.0088(4) 0.6523(4) 0.3701(2)
F16 F 0.2013(6) 0.7582(6) 0.3645(2)
P3 P 0.71084(14) 0.57320(14) 0.04376(7)
F17 F 0.6384(4) 0.5485(4) 0.09239(16)
F18 F 0.7761(4) 0.6008(4) -0.00629(19)
F19 F 0.7146(4) 0.6781(3) 0.05405(17)
F20 F 0.6148(3) 0.6172(4) 0.01890(16)
F21 F 0.7008(4) 0.4711(4) 0.0324(2)
F22 F 0.8022(5) 0.5342(5) 0.0705(3)
P4 P 0.56970(14) 0.81641(15) 0.26839(8)
F23 F 0.4640(3) 0.8098(4) 0.29915(17)
F24 F 0.5466(4) 0.9316(3) 0.2543(2)
F25 F 0.6766(4) 0.8209(4) 0.2374(2)
F26 F 0.6200(4) 0.8307(5) 0.3110(2)
F27 F 0.5194(4) 0.8070(4) 0.22383(17)
F28 F 0.5922(4) 0.7010(4) 0.2806(3)
N21 N 0.6790(9) 0.5013(7) 0.2307(3)
C85 C 0.7207(6) 0.6566(6) 0.1707(3)
C86 C 0.6977(7) 0.5702(7) 0.2038(3)
C89 C 0.5356(5) 0.2251(5) 0.9333(3)
Cl1 Cl 0.5244(2) 0.1132(2) 0.97250(10)
Cl2 Cl 0.5293(2) 0.21320(19) 0.87603(9)
Cl3 Cl 0.6488(2) 0.26825(18) 0.93642(13)
loop_
_geom_bond_atom_site_label_1
_geom_bond_atom_site_label_2
_geom_bond_site_symmetry_1
_geom_bond_site_symmetry_2
Fe1 N5 1_555 1_555
Fe2 N13 1_555 1_555
Co1 N1 1_555 1_555
Co2 N3 1_555 1_555
P1 F1 1_555 1_555
P2 F11 1_555 1_555
P3 F17 1_555 1_555
P4 F23 1_555 1_555
F2 P1 1_555 1_555
F3 P1 1_555 1_555
F4 P1 1_555 1_555
F5 P1 1_555 1_555
F6 P1 1_555 1_555
F12 P2 1_555 1_555
F13 P2 1_555 1_555
F14 P2 1_555 1_555
F15 P2 1_555 1_555
F16 P2 1_555 1_555
F18 P3 1_555 1_555
F19 P3 1_555 1_555
F20 P3 1_555 1_555
F21 P3 1_555 1_555
F22 P3 1_555 1_555
F24 P4 1_555 1_555
F25 P4 1_555 1_555
F26 P4 1_555 1_555
F27 P4 1_555 1_555
F28 P4 1_555 1_555
N1 C1 1_555 1_555
N2 Co1 1_555 1_555
N3 C3 1_555 1_555
N4 Co2 1_555 1_555
N5 C10 1_555 1_555
N6 Fe1 1_555 1_555
N7 Fe1 1_555 1_555
N8 Fe1 1_555 1_555
N9 Co1 1_555 1_555
N10 Co1 1_555 1_555
N11 Co1 1_555 1_555
N12 Co1 1_555 1_555
N13 C45 1_555 1_555
N14 Fe2 1_555 1_555
N15 Fe2 1_555 1_555
N16 Fe2 1_555 1_555
N17 Co2 1_555 1_555
N18 Co2 1_555 1_555
N19 Co2 1_555 1_555
N20 Co2 1_555 1_555
C1 Fe1 1_555 1_555
C2 Fe2 1_555 1_555
C3 Fe2 1_555 1_555
C4 Fe1 1_555 1_555
C5 N6 1_555 1_555
H1 C5 1_555 1_555
C6 C5 1_555 1_555
H2 C6 1_555 1_555
C7 C6 1_555 1_555
H3 C7 1_555 1_555
C8 C7 1_555 1_555
H4 C8 1_555 1_555
C9 N6 1_555 1_555
C10 C9 1_555 1_555
C11 C10 1_555 1_555
H5 C11 1_555 1_555
C12 C11 1_555 1_555
H6 C12 1_555 1_555
C13 C12 1_555 1_555
H7 C13 1_555 1_555
C14 N5 1_555 1_555
H8 C14 1_555 1_555
C15 N7 1_555 1_555
H9 C15 1_555 1_555
C16 C15 1_555 1_555
H10 C16 1_555 1_555
C17 C16 1_555 1_555
H11 C17 1_555 1_555
C18 C17 1_555 1_555
H12 C18 1_555 1_555
C19 N7 1_555 1_555
C20 N8 1_555 1_555
C21 C20 1_555 1_555
H13 C21 1_555 1_555
C22 C21 1_555 1_555
H14 C22 1_555 1_555
C23 C22 1_555 1_555
H15 C23 1_555 1_555
C24 N8 1_555 1_555
H16 C24 1_555 1_555
C25 N9 1_555 1_555
H17 C25 1_555 1_555
C26 C25 1_555 1_555
H18 C26 1_555 1_555
C27 C26 1_555 1_555
H19 C27 1_555 1_555
C28 C27 1_555 1_555
H20 C28 1_555 1_555
C29 N9 1_555 1_555
C30 N10 1_555 1_555
C31 C30 1_555 1_555
H21 C31 1_555 1_555
C32 C31 1_555 1_555
H22 C32 1_555 1_555
C33 C32 1_555 1_555
H23 C33 1_555 1_555
C34 N10 1_555 1_555
H24 C34 1_555 1_555
C35 N11 1_555 1_555
H25 C35 1_555 1_555
C36 C35 1_555 1_555
H26 C36 1_555 1_555
C37 C36 1_555 1_555
H27 C37 1_555 1_555
C38 C37 1_555 1_555
H28 C38 1_555 1_555
C39 N11 1_555 1_555
C40 N12 1_555 1_555
C41 C40 1_555 1_555
H29 C41 1_555 1_555
C42 C41 1_555 1_555
H30 C42 1_555 1_555
C43 C42 1_555 1_555
H31 C43 1_555 1_555
C44 N12 1_555 1_555
H32 C44 1_555 1_555
C45 H33 1_555 1_555
C46 C45 1_555 1_555
H34 C46 1_555 1_555
C47 C46 1_555 1_555
H35 C47 1_555 1_555
C48 C47 1_555 1_555
H36 C48 1_555 1_555
C49 N13 1_555 1_555
C50 N14 1_555 1_555
C51 C50 1_555 1_555
H37 C51 1_555 1_555
C52 C51 1_555 1_555
H38 C52 1_555 1_555
C53 C52 1_555 1_555
H39 C53 1_555 1_555
C54 N14 1_555 1_555
H40 C54 1_555 1_555
C55 N15 1_555 1_555
H41 C55 1_555 1_555
C56 C55 1_555 1_555
H42 C56 1_555 1_555
C57 C56 1_555 1_555
H43 C57 1_555 1_555
C58 C57 1_555 1_555
H44 C58 1_555 1_555
C59 N15 1_555 1_555
C60 N16 1_555 1_555
C61 C60 1_555 1_555
H45 C61 1_555 1_555
C62 C61 1_555 1_555
H46 C62 1_555 1_555
C63 C62 1_555 1_555
H47 C63 1_555 1_555
C64 N16 1_555 1_555
H48 C64 1_555 1_555
C65 N17 1_555 1_555
H49 C65 1_555 1_555
C66 C65 1_555 1_555
H50 C66 1_555 1_555
C67 C66 1_555 1_555
H51 C67 1_555 1_555
C68 C67 1_555 1_555
H52 C68 1_555 1_555
C69 N17 1_555 1_555
C70 N18 1_555 1_555
C71 C70 1_555 1_555
H53 C71 1_555 1_555
C72 C71 1_555 1_555
H54 C72 1_555 1_555
C73 C72 1_555 1_555
H55 C73 1_555 1_555
C74 N18 1_555 1_555
H56 C74 1_555 1_555
C75 N19 1_555 1_555
H57 C75 1_555 1_555
C76 C75 1_555 1_555
H58 C76 1_555 1_555
C77 C76 1_555 1_555
H59 C77 1_555 1_555
C78 C77 1_555 1_555
H60 C78 1_555 1_555
C79 N19 1_555 1_555
C80 N20 1_555 1_555
C81 C80 1_555 1_555
H61 C81 1_555 1_555
C82 C81 1_555 1_555
H62 C82 1_555 1_555
C83 C82 1_555 1_555
H63 C83 1_555 1_555
C84 N20 1_555 1_555
H64 C84 1_555 1_555
N21 C86 1_555 1_555
C85 C86 1_555 1_555
C89 Cl1 1_555 1_555
Cl2 C89 1_555 1_555
Cl3 C89 1_555 1_555
N2 C2 1_555 1_555
N4 C4 1_555 1_555
C8 C9 1_555 1_555
C13 C14 1_555 1_555
C18 C19 1_555 1_555
C19 C20 1_555 1_555
C23 C24 1_555 1_555
C28 C29 1_555 1_555
C29 C30 1_555 1_555
C33 C34 1_555 1_555
C38 C39 1_555 1_555
C39 C40 1_555 1_555
C43 C44 1_555 1_555
C48 C49 1_555 1_555
C49 C50 1_555 1_555
C53 C54 1_555 1_555
C58 C59 1_555 1_555
C59 C60 1_555 1_555
C63 C64 1_555 1_555
C68 C69 1_555 1_555
C69 C70 1_555 1_555
C73 C74 1_555 1_555
C78 C79 1_555 1_555
C79 C80 1_555 1_555
C83 C84 1_555 1_555

#END
