
#######################################################################
#
#                 Cambridge Crystallographic Data Centre
#                                CCDC 
#
#######################################################################
#
# If this CIF has been generated from an entry in the Cambridge 
# Structural Database, then it will include bibliographic, chemical, 
# crystal, experimental, refinement or atomic coordinate data resulting 
# from the CCDC's data processing and validation procedures.
#
#######################################################################

data_WUFXIG
_chemical_formula_moiety         
'C104 H112 Ag8 F6 N24 O14 Ru6 S2 4+,4(C1 F3 O3 S1 1-),3(C1 H4 O1),4.5(H2 O1)'
_chemical_name_systematic        
'hexakis(\m-5-(2-oxidophenyl)-tetrazolato)-hexakis(1-isopropyl-4-methylbenzene)-bis(trifluoromethanesulfonato)-diaqua-hexa-ruthenium-hexa-silver tetrakis(trifluoromethanesulfonate) methanol solvate hydrate'
_symmetry_cell_setting           monoclinic
_symmetry_space_group_name_H-M   'C 2/c'
_symmetry_Int_Tables_number      15
_space_group_name_Hall           '-C 2yn'
loop_
_symmetry_equiv_pos_site_id
_symmetry_equiv_pos_as_xyz
1 x,y,z
2 -x,y,1/2-z
3 1/2+x,1/2+y,z
4 1/2-x,1/2+y,1/2-z
5 -x,-y,-z
6 x,-y,1/2+z
7 1/2-x,1/2-y,-z
8 1/2+x,1/2-y,1/2+z
_cell_length_a                   26.067(4)
_cell_length_b                   18.903(3)
_cell_length_c                   31.276(5)
_cell_angle_alpha                90
_cell_angle_beta                 94.391(10)
_cell_angle_gamma                90
_cell_volume                     15365.8
_exptl_crystal_colour            yellow
_exptl_crystal_description       block
_cell_formula_units_Z            4
loop_
_atom_site_label
_atom_site_type_symbol
_atom_site_fract_x
_atom_site_fract_y
_atom_site_fract_z
Ag1 Ag 0.76481(16) 0.1119(2) 0.61915(13)
Ru1 Ru 0.71418(17) 0.2636(2) 0.68252(13)
Ru2 Ru 0.90233(16) 0.3936(2) 0.61292(13)
Ru3 Ru 0.69149(19) 0.5213(2) 0.56862(14)
Ag2 Ag 0.77723(16) 0.4420(2) 0.66557(12)
Ag3 Ag 0.8911(2) 0.3849(3) 0.49306(14)
Ag4 Ag 0.6094(2) 0.3886(3) 0.50612(15)
N1 N 0.6493(14) 0.370(2) 0.5741(12)
N2 N 0.6772(15) 0.423(2) 0.5933(13)
N3 N 0.6860(13) 0.3246(18) 0.6342(10)
C1 C 0.6538(17) 0.315(3) 0.5999(15)
N4 N 0.6977(14) 0.396(2) 0.6291(12)
C2 C 0.6286(15) 0.116(2) 0.6086(12)
H1 H 0.6436 0.0752 0.6205
C3 C 0.6291(18) 0.242(2) 0.5951(13)
C4 C 0.5852(19) 0.238(3) 0.5686(14)
H2 H 0.5709 0.2780 0.5550
C5 C 0.651(2) 0.180(3) 0.6164(16)
O1 O 0.6973(12) 0.1874(15) 0.6390(9)
O2 O 0.6750(11) 0.4745(17) 0.5107(9)
C6 C 0.681(2) 0.498(3) 0.4366(16)
H3 H 0.6452 0.5042 0.4329
C7 C 0.708(2) 0.483(3) 0.4814(17)
C8 C 0.760(2) 0.478(2) 0.4837(15)
S1 S 0.8402(8) 0.0249(15) 0.7197(7)
N5 N 0.8391(15) 0.437(2) 0.5734(13)
N6 N 0.7668(15) 0.487(2) 0.5605(13)
N7 N 0.8000(17) 0.465(2) 0.5932(12)
C9 C 0.788(2) 0.466(3) 0.5243(17)
N8 N 0.8490(13) 0.3147(19) 0.6277(10)
N9 N 0.8080(14) 0.3257(19) 0.6537(10)
N10 N 0.7806(14) 0.266(2) 0.6518(10)
N11 N 0.8044(19) 0.219(2) 0.6343(13)
C10 C 0.627(2) 0.574(3) 0.6057(17)
C11 C 0.678(2) 0.576(3) 0.6281(17)
H4 H 0.6815 0.5571 0.6555
C12 C 0.623(2) 0.596(3) 0.5599(19)
H5 H 0.5932 0.5902 0.5424
C13 C 0.728(2) 0.191(3) 0.7368(14)
H6 H 0.7424 0.1461 0.7375
C14 C 0.650(2) 0.269(3) 0.7257(14)
C15 C 0.918(2) 0.460(3) 0.6688(17)
H7 H 0.8915 0.4790 0.6834
C16 C 0.935(2) 0.505(3) 0.6360(17)
C17 C 0.988(3) 0.402(3) 0.628(2)
H8 H 1.0186 0.3860 0.6174
C18 C 0.5824(16) 0.112(2) 0.5826(13)
H9 H 0.5663 0.0680 0.5794
C19 C 0.8863(16) 0.217(2) 0.5917(12)
C20 C 0.843(2) 0.244(3) 0.6175(15)
C21 C 0.896(2) 0.147(3) 0.5974(16)
H10 H 0.8784 0.1229 0.6177
C22 C 0.9313(19) 0.111(3) 0.5730(14)
H11 H 0.9351 0.0618 0.5753
C23 C 0.678(2) 0.202(3) 0.7304(16)
H12 H 0.6572 0.1621 0.7286
C24 C 0.685(2) 0.332(3) 0.7309(14)
H13 H 0.6725 0.3780 0.7273
C25 C 0.7348(18) 0.319(3) 0.7409(12)
H14 H 0.7568 0.3574 0.7471
C26 C 0.814(2) 0.243(3) 0.7538(16)
H15 H 0.8269 0.2057 0.7366
H16 H 0.8200 0.2309 0.7836
H17 H 0.8312 0.2863 0.7482
C27 C 0.755(2) 0.252(3) 0.7424(17)
C28 C 0.5609(19) 0.166(3) 0.5624(14)
H18 H 0.5310 0.1608 0.5446
C29 C 0.7112(19) 0.504(2) 0.4019(14)
H19 H 0.6952 0.5081 0.3745
C30 C 0.787(2) 0.482(3) 0.4467(15)
H20 H 0.8218 0.4690 0.4486
O3 O 0.8187(15) 0.079(2) 0.6922(11)
O4 O 0.8284(17) 0.025(3) 0.7616(13)
O5 O 0.8403(18) -0.046(3) 0.6993(13)
C31 C 0.9330(17) 0.396(2) 0.6825(14)
H21 H 0.9200 0.3763 0.7067
C32 C 0.9683(19) 0.358(3) 0.6598(15)
O6 O 0.9075(11) 0.3269(19) 0.5603(8)
C33 C 0.913(2) 0.253(3) 0.5655(15)
C34 C 0.9560(17) 0.220(2) 0.5422(13)
H22 H 0.9777 0.2475 0.5266
C35 C 0.9605(19) 0.150(3) 0.5452(15)
H23 H 0.9833 0.1265 0.5287
C36 C 0.9687(18) 0.467(3) 0.6097(15)
H24 H 0.9771 0.4836 0.5831
C37 C 0.913(3) 0.577(4) 0.615(2)
C38 C 0.670(2) 0.627(3) 0.5434(17)
H25 H 0.6709 0.6411 0.5151
N12 N 0.8331(17) 0.440(2) 0.5309(14)
C39 C 0.722(2) 0.604(3) 0.6129(17)
H26 H 0.7539 0.6042 0.6283
C40 C 0.764(2) 0.503(3) 0.4069(17)
H27 H 0.7841 0.5165 0.3846
C41 C 0.768(2) 0.652(4) 0.5520(19)
H28 H 0.7955 0.6252 0.5668
H29 H 0.7754 0.7015 0.5553
H30 H 0.7660 0.6398 0.5221
C42 C 0.558(3) 0.605(4) 0.645(3)
H31 H 0.5265 0.5901 0.6568
H32 H 0.5501 0.6410 0.6240
H33 H 0.5814 0.6223 0.6673
C43 C 0.580(3) 0.483(4) 0.657(3)
H34 H 0.6032 0.4940 0.6812
H35 H 0.5893 0.4381 0.6452
H36 H 0.5455 0.4795 0.6661
C44 C 0.713(2) 0.633(3) 0.5724(19)
C45 C 0.582(3) 0.540(4) 0.623(2)
H37 H 0.5582 0.5264 0.5987
O7 O 0.7666(14) 0.5333(18) 0.7095(13)
C46 C 0.993(3) 0.286(4) 0.668(2)
C47 C 0.963(4) 0.267(6) 0.706(3)
C48 C 1.043(3) 0.294(7) 0.696(3)
C49 C 0.600(2) 0.296(4) 0.718(2)
C50 C 0.581(4) 0.326(5) 0.759(3)
C51 C 0.568(3) 0.236(4) 0.697(2)
F1 F 0.917(2) 0.098(3) 0.7366(19)
F2 F 0.934(3) -0.010(3) 0.745(2)
F3 F 0.9256(18) 0.043(3) 0.6870(14)
C52 C 0.925(5) 0.039(4) 0.735(4)
Ag1F Ag 0.73519(16) 0.3881(2) 0.38085(13)
Ru1F Ru 0.78582(17) 0.2364(2) 0.31748(13)
Ru2F Ru 0.59767(16) 0.1064(2) 0.38708(13)
Ru3F Ru 0.80851(19) -0.0213(2) 0.43138(14)
Ag2F Ag 0.72277(16) 0.0580(2) 0.33443(12)
Ag3F Ag 0.6089(2) 0.1151(3) 0.50694(14)
Ag4F Ag 0.8906(2) 0.1114(3) 0.49388(15)
N1F N 0.8507(14) 0.130(2) 0.4259(12)
N2F N 0.8228(15) 0.077(2) 0.4067(13)
N3F N 0.8140(13) 0.1754(18) 0.3658(10)
C1F C 0.8462(17) 0.185(3) 0.4001(15)
N4F N 0.8023(14) 0.104(2) 0.3709(12)
C2F C 0.8714(15) 0.384(2) 0.3914(12)
H1F H 0.8564 0.4248 0.3795
C3F C 0.8709(18) 0.258(2) 0.4049(13)
C4F C 0.9148(19) 0.262(3) 0.4314(14)
H2F H 0.9291 0.2220 0.4450
C5F C 0.849(2) 0.320(3) 0.3836(16)
O1F O 0.8027(12) 0.3126(15) 0.3610(9)
O2F O 0.8250(11) 0.0255(17) 0.4893(9)
C6F C 0.819(2) 0.002(3) 0.5634(16)
H3F H 0.8548 -0.0042 0.5671
C7F C 0.792(2) 0.017(3) 0.5186(17)
C8F C 0.740(2) 0.022(2) 0.5163(15)
S1F S 0.6598(8) 0.4751(15) 0.2803(7)
N5F N 0.6609(15) 0.063(2) 0.4266(13)
N6F N 0.7332(15) 0.013(2) 0.4395(13)
N7F N 0.7000(17) 0.035(2) 0.4068(12)
C9F C 0.712(2) 0.034(3) 0.4757(17)
N8F N 0.6510(13) 0.1853(19) 0.3723(10)
N9F N 0.6920(14) 0.1743(19) 0.3463(10)
N10F N 0.7194(14) 0.234(2) 0.3482(10)
N11F N 0.6956(19) 0.281(2) 0.3657(13)
C10F C 0.873(2) -0.074(3) 0.3943(17)
C11F C 0.822(2) -0.076(3) 0.3719(17)
H4F H 0.8185 -0.0571 0.3445
C12F C 0.877(2) -0.096(3) 0.4401(19)
H5F H 0.9068 -0.0902 0.4576
C13F C 0.772(2) 0.309(3) 0.2632(14)
H6F H 0.7576 0.3539 0.2625
C14F C 0.850(2) 0.231(3) 0.2743(14)
C15F C 0.582(2) 0.040(3) 0.3312(17)
H7F H 0.6085 0.0210 0.3166
C16F C 0.565(2) -0.005(3) 0.3640(17)
C17F C 0.512(3) 0.098(3) 0.372(2)
H8F H 0.4814 0.1140 0.3826
C18F C 0.9176(16) 0.388(2) 0.4174(13)
H9F H 0.9337 0.4320 0.4206
C19F C 0.6137(16) 0.283(2) 0.4083(12)
C20F C 0.657(2) 0.256(3) 0.3825(15)
C21F C 0.604(2) 0.353(3) 0.4026(16)
H10F H 0.6216 0.3771 0.3823
C22F C 0.5687(19) 0.389(3) 0.4270(14)
H11F H 0.5649 0.4382 0.4247
C23F C 0.822(2) 0.298(3) 0.2696(16)
H12F H 0.8428 0.3379 0.2714
C24F C 0.815(2) 0.168(3) 0.2691(14)
H13F H 0.8275 0.1220 0.2727
C25F C 0.7652(18) 0.181(3) 0.2591(12)
H14F H 0.7432 0.1426 0.2529
C26F C 0.686(2) 0.257(3) 0.2462(16)
H15F H 0.6731 0.2943 0.2634
H16F H 0.6800 0.2691 0.2164
H17F H 0.6688 0.2137 0.2518
C27F C 0.745(2) 0.248(3) 0.2576(17)
C28F C 0.9391(19) 0.334(3) 0.4376(14)
H18F H 0.9690 0.3392 0.4554
C29F C 0.7888(19) -0.004(2) 0.5981(14)
H19F H 0.8048 -0.0081 0.6255
C30F C 0.713(2) 0.018(3) 0.5533(15)
H20F H 0.6782 0.0310 0.5514
O3F O 0.6813(15) 0.421(2) 0.3078(11)
O4F O 0.6716(17) 0.475(3) 0.2384(13)
O5F O 0.6597(18) 0.546(3) 0.3007(13)
C31F C 0.5670(17) 0.104(2) 0.3175(14)
H21F H 0.5800 0.1237 0.2933
C32F C 0.5317(19) 0.142(3) 0.3402(15)
O6F O 0.5925(11) 0.1731(19) 0.4397(8)
C33F C 0.587(2) 0.247(3) 0.4345(15)
C34F C 0.5440(17) 0.280(2) 0.4578(13)
H22F H 0.5223 0.2525 0.4734
C35F C 0.5395(19) 0.350(3) 0.4548(15)
H23F H 0.5167 0.3735 0.4713
C36F C 0.5313(18) 0.033(3) 0.3903(15)
H24F H 0.5229 0.0164 0.4169
C37F C 0.587(3) -0.077(4) 0.385(2)
C38F C 0.830(2) -0.127(3) 0.4566(17)
H25F H 0.8291 -0.1411 0.4849
N12F N 0.6669(17) 0.060(2) 0.4691(14)
C39F C 0.778(2) -0.104(3) 0.3871(17)
H26F H 0.7461 -0.1042 0.3717
C40F C 0.736(2) -0.003(3) 0.5931(17)
H27F H 0.7159 -0.0165 0.6154
C41F C 0.732(2) -0.152(4) 0.4480(19)
H28F H 0.7045 -0.1252 0.4332
H29F H 0.7246 -0.2015 0.4447
H30F H 0.7340 -0.1398 0.4779
C42F C 0.942(3) -0.105(4) 0.355(3)
H31F H 0.9735 -0.0901 0.3432
H32F H 0.9499 -0.1410 0.3760
H33F H 0.9186 -0.1223 0.3327
C43F C 0.920(3) 0.017(4) 0.343(3)
H34F H 0.8968 0.0060 0.3188
H35F H 0.9107 0.0619 0.3548
H36F H 0.9545 0.0205 0.3339
C44F C 0.787(2) -0.133(3) 0.4276(19)
C45F C 0.918(3) -0.040(4) 0.377(2)
H37F H 0.9418 -0.0264 0.4013
O7F O 0.7334(14) -0.0333(18) 0.2905(13)
C46F C 0.507(3) 0.214(4) 0.332(2)
C47F C 0.537(4) 0.233(6) 0.294(3)
C48F C 0.457(3) 0.206(7) 0.304(3)
C49F C 0.900(2) 0.204(4) 0.282(2)
C50F C 0.919(4) 0.174(5) 0.241(3)
C51F C 0.932(3) 0.264(4) 0.303(2)
F1F F 0.583(2) 0.402(3) 0.2634(19)
F2F F 0.566(3) 0.510(3) 0.255(2)
F3F F 0.5744(18) 0.457(3) 0.3130(14)
C52F C 0.575(5) 0.461(4) 0.265(4)
S2 S 0.1420(10) 0.5255(14) 0.2136(8)
O8 O 0.1487(15) 0.578(2) 0.2466(13)
O9 O 0.177(3) 0.477(4) 0.203(2)
F4 F 0.0446(14) 0.5356(19) 0.2220(12)
F5 F 0.0651(16) 0.458(2) 0.1814(12)
F6 F 0.080(3) 0.463(4) 0.242(3)
C53 C 0.078(2) 0.499(3) 0.2102(19)
O10 O 0.115(3) 0.564(4) 0.172(2)
O11 O 0.2451(12) 0.6998(19) 0.4547(10)
O12 O 0.938(3) 0.558(4) 0.494(3)
C54 C 0.931(3) 0.595(4) 0.478(2)
O13 O 0.738(3) 0.780(4) 0.639(2)
loop_
_geom_bond_atom_site_label_1
_geom_bond_atom_site_label_2
_geom_bond_site_symmetry_1
_geom_bond_site_symmetry_2
Ag1 O1 1_555 1_555
Ru1 N3 1_555 1_555
Ru2 N5 1_555 1_555
Ru3 N2 1_555 1_555
Ag2 N4 1_555 1_555
Ag3 O6 1_555 1_555
Ag4 N1 1_555 1_555
N1 N2 1_555 1_555
N2 N4 1_555 1_555
N3 C1 1_555 1_555
C1 N1 1_555 1_555
N4 N3 1_555 1_555
C2 H1 1_555 1_555
C3 C1 1_555 1_555
C4 C3 1_555 1_555
H2 C4 1_555 1_555
C5 C2 1_555 1_555
O1 Ru1 1_555 1_555
O2 Ru3 1_555 1_555
C6 H3 1_555 1_555
C7 O2 1_555 1_555
C8 C7 1_555 1_555
S1 O3 1_555 1_555
N5 N7 1_555 1_555
N6 Ru3 1_555 1_555
N7 Ag2 1_555 1_555
C9 C8 1_555 1_555
N8 Ru2 1_555 1_555
N9 Ag2 1_555 1_555
N10 Ru1 1_555 1_555
N11 Ag1 1_555 1_555
C10 Ru3 1_555 1_555
C11 Ru3 1_555 1_555
H4 C11 1_555 1_555
C12 Ru3 1_555 1_555
H5 C12 1_555 1_555
C13 Ru1 1_555 1_555
H6 C13 1_555 1_555
C14 Ru1 1_555 1_555
C15 Ru2 1_555 1_555
H7 C15 1_555 1_555
C16 Ru2 1_555 1_555
C17 Ru2 1_555 1_555
H8 C17 1_555 1_555
C18 C2 1_555 1_555
H9 C18 1_555 1_555
C19 C20 1_555 1_555
C20 N8 1_555 1_555
C21 C19 1_555 1_555
H10 C21 1_555 1_555
C22 C21 1_555 1_555
H11 C22 1_555 1_555
C23 Ru1 1_555 1_555
H12 C23 1_555 1_555
C24 Ru1 1_555 1_555
H13 C24 1_555 1_555
C25 Ru1 1_555 1_555
H14 C25 1_555 1_555
C26 H15 1_555 1_555
H16 C26 1_555 1_555
H17 C26 1_555 1_555
C27 Ru1 1_555 1_555
C28 C4 1_555 1_555
H18 C28 1_555 1_555
C29 C6 1_555 1_555
H19 C29 1_555 1_555
C30 C8 1_555 1_555
H20 C30 1_555 1_555
O3 Ag1 1_555 1_555
O4 S1 1_555 1_555
O5 S1 1_555 1_555
C31 Ru2 1_555 1_555
H21 C31 1_555 1_555
C32 Ru2 1_555 1_555
O6 Ru2 1_555 1_555
C33 C19 1_555 1_555
C34 C33 1_555 1_555
H22 C34 1_555 1_555
C35 C22 1_555 1_555
H23 C35 1_555 1_555
C36 Ru2 1_555 1_555
H24 C36 1_555 1_555
C37 C16 1_555 1_555
C38 Ru3 1_555 1_555
H25 C38 1_555 1_555
N12 Ag3 1_555 1_555
C39 Ru3 1_555 1_555
H26 C39 1_555 1_555
C40 C29 1_555 1_555
H27 C40 1_555 1_555
C41 H28 1_555 1_555
H29 C41 1_555 1_555
H30 C41 1_555 1_555
C42 H31 1_555 1_555
H32 C42 1_555 1_555
H33 C42 1_555 1_555
C43 H34 1_555 1_555
H35 C43 1_555 1_555
H36 C43 1_555 1_555
C44 Ru3 1_555 1_555
C45 C10 1_555 1_555
H37 C45 1_555 1_555
O7 Ag2 1_555 1_555
C46 C32 1_555 1_555
C47 C46 1_555 1_555
C48 C46 1_555 1_555
C49 C14 1_555 1_555
C50 C49 1_555 1_555
C51 C49 1_555 1_555
F1 C52 1_555 1_555
F2 C52 1_555 1_555
F3 C52 1_555 1_555
C52 S1 1_555 1_555
S2 O8 1_555 1_555
O9 S2 1_555 1_555
F4 C53 1_555 1_555
F5 C53 1_555 1_555
F6 C53 1_555 1_555
C53 S2 1_555 1_555
O10 S2 1_555 1_555
O12 C54 1_555 1_555
Ag1F C29 1_555 1_555
Ru1F N3F 1_555 1_555
Ru2F N5F 1_555 1_555
Ru3F N2F 1_555 1_555
Ag2F N4F 1_555 1_555
Ag3F C18 1_555 1_555
Ag4F C22 1_555 1_555
N1F Ag4F 1_555 1_555
N2F N1F 1_555 1_555
N3F C1F 1_555 1_555
C1F N1F 1_555 1_555
N4F N2F 1_555 1_555
C2F H1F 1_555 1_555
C3F C1F 1_555 1_555
C4F C3F 1_555 1_555
H2F C4F 1_555 1_555
C5F C2F 1_555 1_555
O1F Ag1F 1_555 1_555
O2F Ru3F 1_555 1_555
C6F H3F 1_555 1_555
C7F O2F 1_555 1_555
C8F C7F 1_555 1_555
S1F O3F 1_555 1_555
N5F N7F 1_555 1_555
N6F Ru3F 1_555 1_555
N7F Ag2F 1_555 1_555
C9F C8F 1_555 1_555
N8F Ru2F 1_555 1_555
N9F Ag2F 1_555 1_555
N10F Ru1F 1_555 1_555
N11F Ag1F 1_555 1_555
C10F Ru3F 1_555 1_555
C11F Ru3F 1_555 1_555
H4F C11F 1_555 1_555
C12F Ru3F 1_555 1_555
H5F C12F 1_555 1_555
C13F Ru1F 1_555 1_555
H6F C13F 1_555 1_555
C14F Ru1F 1_555 1_555
C15F Ru2F 1_555 1_555
H7F C15F 1_555 1_555
C16F Ru2F 1_555 1_555
C17F Ru2F 1_555 1_555
H8F C17F 1_555 1_555
C18F Ag3 1_555 1_555
H9F C18F 1_555 1_555
C19F C20F 1_555 1_555
C20F N8F 1_555 1_555
C21F C19F 1_555 1_555
H10F C21F 1_555 1_555
C22F Ag4 1_555 1_555
H11F C22F 1_555 1_555
C23F Ru1F 1_555 1_555
H12F C23F 1_555 1_555
C24F Ru1F 1_555 1_555
H13F C24F 1_555 1_555
C25F Ru1F 1_555 1_555
H14F C25F 1_555 1_555
C26F H15F 1_555 1_555
H16F C26F 1_555 1_555
H17F C26F 1_555 1_555
C27F Ru1F 1_555 1_555
C28F Ag3 1_555 1_555
H18F C28F 1_555 1_555
C29F Ag1 1_555 1_555
H19F C29F 1_555 1_555
C30F C8F 1_555 1_555
H20F C30F 1_555 1_555
O3F Ag1F 1_555 1_555
O4F S1F 1_555 1_555
O5F S1F 1_555 1_555
C31F Ru2F 1_555 1_555
H21F C31F 1_555 1_555
C32F Ru2F 1_555 1_555
O6F Ru2F 1_555 1_555
C33F C19F 1_555 1_555
C34F C33F 1_555 1_555
H22F C34F 1_555 1_555
C35F Ag4 1_555 1_555
H23F C35F 1_555 1_555
C36F Ru2F 1_555 1_555
H24F C36F 1_555 1_555
C37F C16F 1_555 1_555
C38F Ru3F 1_555 1_555
H25F C38F 1_555 1_555
N12F Ag3F 1_555 1_555
C39F Ru3F 1_555 1_555
H26F C39F 1_555 1_555
C40F Ag1 1_555 1_555
H27F C40F 1_555 1_555
C41F H28F 1_555 1_555
H29F C41F 1_555 1_555
H30F C41F 1_555 1_555
C42F H31F 1_555 1_555
H32F C42F 1_555 1_555
H33F C42F 1_555 1_555
C43F H34F 1_555 1_555
H35F C43F 1_555 1_555
H36F C43F 1_555 1_555
C44F Ru3F 1_555 1_555
C45F C10F 1_555 1_555
H37F C45F 1_555 1_555
O7F Ag2F 1_555 1_555
C46F C32F 1_555 1_555
C47F C46F 1_555 1_555
C48F C46F 1_555 1_555
C49F C14F 1_555 1_555
C50F C49F 1_555 1_555
C51F C49F 1_555 1_555
F1F C52F 1_555 1_555
F2F C52F 1_555 1_555
F3F C52F 1_555 1_555
C52F S1F 1_555 1_555
Ag4 O2 1_555 1_555
C3 C5 1_555 1_555
C5 O1 1_555 1_555
C6 C7 1_555 1_555
N5 N12 1_555 1_555
N6 N7 1_555 1_555
N6 C9 1_555 1_555
C9 N12 1_555 1_555
N8 N9 1_555 1_555
N9 N10 1_555 1_555
N10 N11 1_555 1_555
N11 C20 1_555 1_555
C10 C11 1_555 1_555
C10 C12 1_555 1_555
C11 C39 1_555 1_555
C12 C38 1_555 1_555
C13 C23 1_555 1_555
C13 C27 1_555 1_555
C14 C23 1_555 1_555
C14 C24 1_555 1_555
C15 C16 1_555 1_555
C15 C31 1_555 1_555
C16 C36 1_555 1_555
C17 C32 1_555 1_555
C17 C36 1_555 1_555
C18 C28 1_555 1_555
C24 C25 1_555 1_555
C25 C27 1_555 1_555
C26 C27 1_555 1_555
C28 Ag3F 1_555 1_555
C30 C40 1_555 1_555
C31 C32 1_555 1_555
O6 C33 1_555 1_555
C34 C35 1_555 1_555
C35 Ag4F 1_555 1_555
C38 C44 1_555 1_555
C39 C44 1_555 1_555
C40 Ag1F 1_555 1_555
C41 C44 1_555 1_555
C42 C45 1_555 1_555
C43 C45 1_555 1_555
Ru1F O1F 1_555 1_555
Ag3F O6F 1_555 1_555
Ag4F O2F 1_555 1_555
N3F N4F 1_555 1_555
C2F C18F 1_555 1_555
C3F C5F 1_555 1_555
C4F C28F 1_555 1_555
C5F O1F 1_555 1_555
C6F C7F 1_555 1_555
C6F C29F 1_555 1_555
N5F N12F 1_555 1_555
N6F N7F 1_555 1_555
N6F C9F 1_555 1_555
C9F N12F 1_555 1_555
N8F N9F 1_555 1_555
N9F N10F 1_555 1_555
N10F N11F 1_555 1_555
N11F C20F 1_555 1_555
C10F C11F 1_555 1_555
C10F C12F 1_555 1_555
C11F C39F 1_555 1_555
C12F C38F 1_555 1_555
C13F C23F 1_555 1_555
C13F C27F 1_555 1_555
C14F C23F 1_555 1_555
C14F C24F 1_555 1_555
C15F C16F 1_555 1_555
C15F C31F 1_555 1_555
C16F C36F 1_555 1_555
C17F C32F 1_555 1_555
C17F C36F 1_555 1_555
C18F C28F 1_555 1_555
C21F C22F 1_555 1_555
C22F C35F 1_555 1_555
C24F C25F 1_555 1_555
C25F C27F 1_555 1_555
C26F C27F 1_555 1_555
C29F C40F 1_555 1_555
C30F C40F 1_555 1_555
C31F C32F 1_555 1_555
O6F C33F 1_555 1_555
C34F C35F 1_555 1_555
C38F C44F 1_555 1_555
C39F C44F 1_555 1_555
C41F C44F 1_555 1_555
C42F C45F 1_555 1_555
C43F C45F 1_555 1_555

#END
