
#######################################################################
#
#                 Cambridge Crystallographic Data Centre
#                                CCDC 
#
#######################################################################
#
# If this CIF has been generated from an entry in the Cambridge 
# Structural Database, then it will include bibliographic, chemical, 
# crystal, experimental, refinement or atomic coordinate data resulting 
# from the CCDC's data processing and validation procedures.
#
#######################################################################

data_XAFXUY
_chemical_formula_moiety         
'C82 H76 N4 O8 P4 Pt2 4+,4(C1 F3 O3 S1 1-),6(C1 H3 N1 O2)'
_chemical_name_systematic        
'bis(\m~2~-ethylene bis(pyridine-4-carboxylate))-bis(1,3-bis(diphenylphosphino)propane)-di-platinum(ii) tetrakis(trifluoromethanesulfonate) nitromethane solvate'
_symmetry_cell_setting           monoclinic
_symmetry_space_group_name_H-M   'P 21/n'
_symmetry_Int_Tables_number      14
_space_group_name_Hall           '-P 2yn'
loop_
_symmetry_equiv_pos_site_id
_symmetry_equiv_pos_as_xyz
1 x,y,z
2 1/2-x,1/2+y,1/2-z
3 -x,-y,-z
4 1/2+x,1/2-y,1/2+z
_cell_length_a                   13.6056(3)
_cell_length_b                   23.3073(4)
_cell_length_c                   19.1246(4)
_cell_angle_alpha                90
_cell_angle_beta                 105.4608(10)
_cell_angle_gamma                90
_cell_volume                     5845.14
_exptl_crystal_colour            colorless
_exptl_crystal_description       prism
_cell_formula_units_Z            2
loop_
_atom_site_label
_atom_site_type_symbol
_atom_site_fract_x
_atom_site_fract_y
_atom_site_fract_z
Pt1 Pt 0.25093(3) 0.278818(15) 0.483814(17)
P1 P 0.0883(2) 0.26611(11) 0.41670(13)
P2 P 0.2840(2) 0.18374(11) 0.48799(13)
N1 N 0.2260(6) 0.3677(3) 0.4823(4)
N2 N 0.3997(6) 0.2975(3) 0.5459(4)
O1 O 0.0885(11) 0.5636(4) 0.4959(6)
O2 O 0.1245(5) 0.5612(3) 0.3921(4)
O3 O 0.2340(5) 0.6569(3) 0.3594(3)
O4 O 0.2872(5) 0.6502(4) 0.2587(4)
C1 C 0.1872(7) 0.3932(4) 0.5313(5)
H1 H 0.1785 0.3716 0.5715
C2 C 0.1597(8) 0.4498(4) 0.5250(5)
H2 H 0.1345 0.4677 0.5613
C3 C 0.1686(7) 0.4805(4) 0.4663(5)
C4 C 0.2130(7) 0.4550(4) 0.4171(5)
H3 H 0.2230 0.4760 0.3770
C5 C 0.2424(7) 0.3988(4) 0.4272(5)
H4 H 0.2751 0.3813 0.3946
C6 C 0.1254(9) 0.5399(5) 0.4553(6)
C7 C 0.0825(8) 0.6176(4) 0.3738(6)
H5 H 0.0971 0.6421 0.4177
H6 H 0.0077 0.6153 0.3535
C8 C 0.1303(7) 0.6424(5) 0.3194(6)
H7 H 0.1305 0.6141 0.2808
H8 H 0.0930 0.6771 0.2969
C9 C 0.3029(7) 0.6597(5) 0.3219(5)
C10 C 0.4068(7) 0.6754(4) 0.3710(4)
C11 C 0.4879(8) 0.6768(5) 0.3400(5)
H9 H 0.4778 0.6685 0.2900
C12 C 0.4156(8) 0.3095(5) 0.6164(5)
H10 H 0.3596 0.3086 0.6373
C13 C 0.4778(7) 0.3009(4) 0.5162(4)
H11 H 0.4657 0.2942 0.4657
C14 C 0.4236(7) 0.6861(4) 0.4432(5)
H12 H 0.3690 0.6847 0.4655
C15 C 0.0688(9) 0.2081(5) 0.3525(5)
H13 H -0.0045 0.2064 0.3264
H14 H 0.1070 0.2165 0.3163
C16 C 0.1018(9) 0.1495(5) 0.3859(6)
H15 H 0.0711 0.1195 0.3500
H16 H 0.0745 0.1443 0.4286
C17 C 0.2179(8) 0.1407(4) 0.4096(5)
H17 H 0.2461 0.1503 0.3684
H18 H 0.2323 0.0997 0.4213
C18 C 0.0393(7) 0.3277(4) 0.3604(4)
C19 C 0.0699(8) 0.3381(5) 0.2966(5)
H19 H 0.1119 0.3113 0.2807
C20 C 0.0379(10) 0.3881(6) 0.2572(5)
H20 H 0.0595 0.3957 0.2148
C21 C -0.0241(9) 0.4262(6) 0.2787(6)
H21 H -0.0476 0.4593 0.2501
C22 C -0.0533(9) 0.4170(5) 0.3424(6)
H22 H -0.0947 0.4443 0.3580
C23 C -0.0216(7) 0.3679(5) 0.3826(5)
H23 H -0.0417 0.3616 0.4259
C24 C -0.0005(8) 0.2529(4) 0.4712(5)
C25 C -0.1020(9) 0.2418(5) 0.4375(6)
H24 H -0.1262 0.2416 0.3861
C26 C -0.1680(10) 0.2309(5) 0.4803(7)
H25 H -0.2376 0.2227 0.4577
C27 C -0.1342(10) 0.2318(5) 0.5551(6)
H26 H -0.1800 0.2240 0.5837
C28 C -0.0340(9) 0.2440(5) 0.5876(6)
H27 H -0.0105 0.2451 0.6390
C29 C 0.0319(8) 0.2545(4) 0.5469(5)
H28 H 0.1012 0.2631 0.5703
C30 C 0.2597(7) 0.1497(4) 0.5669(5)
C31 C 0.2551(11) 0.1807(5) 0.6273(6)
H29 H 0.2655 0.2210 0.6277
C32 C 0.2360(12) 0.1547(7) 0.6871(7)
H30 H 0.2320 0.1771 0.7278
C33 C 0.2231(10) 0.0976(7) 0.6878(8)
H31 H 0.2107 0.0795 0.7292
C34 C 0.2278(11) 0.0654(6) 0.6283(8)
H32 H 0.2194 0.0250 0.6292
C35 C 0.2446(9) 0.0910(5) 0.5677(7)
H33 H 0.2457 0.0685 0.5265
C36 C 0.4174(8) 0.1701(4) 0.4943(5)
C37 C 0.4848(8) 0.1585(5) 0.5599(6)
H34 H 0.4611 0.1575 0.6023
C38 C 0.5877(10) 0.1479(5) 0.5657(8)
H35 H 0.6336 0.1405 0.6118
C39 C 0.6223(10) 0.1484(5) 0.5039(9)
H36 H 0.6915 0.1395 0.5071
C40 C 0.5574(11) 0.1615(5) 0.4391(8)
H37 H 0.5822 0.1631 0.3972
C41 C 0.4525(9) 0.1731(4) 0.4323(6)
H38 H 0.4075 0.1826 0.3865
C12B C 0.5844(8) 0.6905(5) 0.3836(5)
N2B N 0.6003(6) 0.7025(3) 0.4541(4)
Pt1B Pt 0.74907(3) 0.721182(15) 0.516186(17)
P1B P 0.9117(2) 0.73389(11) 0.58330(13)
C15B C 0.9312(9) 0.7919(5) 0.6475(5)
H13B H 1.0045 0.7936 0.6736
H14B H 0.8930 0.7835 0.6837
C16B C 0.8982(9) 0.8505(5) 0.6141(6)
H15B H 0.9289 0.8805 0.6500
H16B H 0.9255 0.8557 0.5714
C17B C 0.7821(8) 0.8593(4) 0.5904(5)
P2B P 0.7160(2) 0.81626(11) 0.51201(13)
N1B N 0.7740(6) 0.6323(3) 0.5177(4)
C1B C 0.8128(7) 0.6068(4) 0.4687(5)
H1B H 0.8215 0.6284 0.4285
C2B C 0.8403(8) 0.5502(4) 0.4750(5)
H2B H 0.8655 0.5323 0.4387
C3B C 0.8314(7) 0.5195(4) 0.5337(5)
C4B C 0.7870(7) 0.5450(4) 0.5829(5)
H3B H 0.7770 0.5240 0.6230
C5B C 0.7576(7) 0.6012(4) 0.5728(5)
H4B H 0.7249 0.6187 0.6054
C6B C 0.8746(9) 0.4601(5) 0.5447(6)
O1B O 0.9115(11) 0.4364(4) 0.5041(6)
O2B O 0.8755(5) 0.4388(3) 0.6079(4)
C7B C 0.9175(8) 0.3824(4) 0.6262(6)
H5B H 0.9029 0.3579 0.5823
H6B H 0.9923 0.3847 0.6465
C8B C 0.8697(7) 0.3576(5) 0.6806(6)
O3B O 0.7660(5) 0.3431(3) 0.6406(3)
C9B C 0.6971(7) 0.3403(5) 0.6781(5)
O4B O 0.7128(5) 0.3498(4) 0.7413(4)
C10B C 0.5932(7) 0.3246(4) 0.6290(4)
C11B C 0.5121(8) 0.3232(5) 0.6600(5)
H9B H 0.5222 0.3315 0.7100
C14B C 0.5764(7) 0.3139(4) 0.5568(5)
H12B H 0.6310 0.3153 0.5345
H7B H 0.8695 0.3859 0.7192
H8B H 0.9070 0.3229 0.7031
C30B C 0.7403(7) 0.8503(4) 0.4331(5)
C31B C 0.7449(11) 0.8193(5) 0.3727(6)
H29B H 0.7345 0.7790 0.3723
C32B C 0.7640(12) 0.8453(7) 0.3129(7)
H30B H 0.7680 0.8229 0.2722
C33B C 0.7769(10) 0.9024(7) 0.3122(8)
H31B H 0.7893 0.9205 0.2708
C34B C 0.7722(11) 0.9346(6) 0.3717(8)
H32B H 0.7806 0.9750 0.3708
C35B C 0.7554(9) 0.9090(5) 0.4323(7)
H33B H 0.7543 0.9315 0.4735
C36B C 0.5826(8) 0.8299(4) 0.5057(5)
C37B C 0.5152(8) 0.8415(5) 0.4401(6)
H34B H 0.5389 0.8425 0.3977
C38B C 0.4123(10) 0.8521(5) 0.4343(8)
H35B H 0.3664 0.8595 0.3882
C39B C 0.3777(10) 0.8516(5) 0.4961(9)
H36B H 0.3085 0.8605 0.4929
C40B C 0.4426(11) 0.8385(5) 0.5609(8)
H37B H 0.4178 0.8369 0.6028
C41B C 0.5475(9) 0.8269(4) 0.5677(6)
H38B H 0.5925 0.8174 0.6135
H17B H 0.7539 0.8497 0.6316
H18B H 0.7677 0.9003 0.5787
C18B C 0.9607(7) 0.6723(4) 0.6396(4)
C19B C 0.9301(8) 0.6619(5) 0.7034(5)
H19B H 0.8881 0.6887 0.7193
C20B C 0.9621(10) 0.6119(6) 0.7428(5)
H20B H 0.9405 0.6043 0.7852
C21B C 1.0241(9) 0.5738(6) 0.7213(6)
H21B H 1.0476 0.5407 0.7499
C22B C 1.0533(9) 0.5830(5) 0.6576(6)
H22B H 1.0947 0.5557 0.6420
C23B C 1.0216(7) 0.6321(5) 0.6174(5)
H23B H 1.0417 0.6384 0.5741
C24B C 1.0005(8) 0.7471(4) 0.5288(5)
C25B C 1.1020(9) 0.7582(5) 0.5625(6)
H24B H 1.1262 0.7584 0.6139
C26B C 1.1680(10) 0.7691(5) 0.5197(7)
H25B H 1.2376 0.7773 0.5423
C27B C 1.1342(10) 0.7682(5) 0.4449(6)
H26B H 1.1800 0.7760 0.4163
C28B C 1.0340(9) 0.7560(5) 0.4124(6)
H27B H 1.0105 0.7549 0.3610
C29B C 0.9681(8) 0.7455(4) 0.4531(5)
H28B H 0.8988 0.7369 0.4297
C13B C 0.5222(7) 0.6991(4) 0.4838(4)
H11B H 0.5343 0.7058 0.5343
H10B H 0.6404 0.6914 0.3627
S1 S 0.7332(2) 0.17108(13) 0.25143(13)
O5 O 0.6729(6) 0.1717(4) 0.1786(4)
O6 O 0.6936(10) 0.1978(6) 0.3034(5)
O7 O 0.8361(7) 0.1841(8) 0.2586(5)
F1 F 0.7826(17) 0.0913(6) 0.3431(7)
F2 F 0.6396(18) 0.0844(9) 0.2730(11)
F3 F 0.758(2) 0.0661(8) 0.2344(10)
C42 C 0.725(2) 0.1039(9) 0.2813(10)
S2 S 0.3410(3) 0.29931(19) 0.27193(19)
O8 O 0.2588(11) 0.2827(5) 0.2120(6)
O9 O 0.3270(8) 0.2935(4) 0.3401(4)
O10 O 0.4342(11) 0.2697(5) 0.2655(9)
F4 F 0.4353(12) 0.3908(7) 0.3020(13)
F5 F 0.2778(9) 0.4009(5) 0.2551(7)
F6 F 0.3656(17) 0.3798(9) 0.1889(12)
C43 C 0.355(2) 0.3699(9) 0.2627(13)
O11 O 0.3062(18) 0.4677(11) 0.0290(14)
O12 O 0.4587(17) 0.5093(10) 0.0819(14)
N3 N 0.4076(19) 0.4640(10) 0.0535(13)
C44 C 0.4520(19) 0.4141(11) 0.0383(15)
H39 H 0.3988 0.3859 0.0176
H40 H 0.4974 0.3988 0.0831
H41 H 0.4915 0.4221 0.0034
O13 O 0.6853(14) 0.4267(8) 0.3578(10)
O14 O 0.693(2) 0.3882(12) 0.4639(15)
N4 N 0.6842(18) 0.3774(10) 0.3940(13)
C45 C 0.650(3) 0.3258(12) 0.3592(17)
H42 H 0.6491 0.3286 0.3080
H43 H 0.5805 0.3180 0.3630
H44 H 0.6952 0.2946 0.3822
O15 O 0.111(2) 0.0330(15) 0.1666(16)
O16 O 0.182(3) 0.018(2) 0.285(2)
N5 N 0.096(3) 0.028(2) 0.2339(18)
C46 C -0.003(3) 0.028(2) 0.237(2)
H45 H -0.0480 0.0364 0.1894
H46 H -0.0116 0.0567 0.2723
H47 H -0.0199 -0.0102 0.2531
O17? O 0.4580(12) 0.0080(7) 0.4666(8)
O18? O 0.411(3) 0.0202(19) 0.3472(17)
N6? N 0.4902(19) 0.0062(9) 0.4040(12)
C47? C 0.587(3) -0.004(3) 0.402(3)
H48? H 0.6292 -0.0130 0.4506
H49? H 0.6144 0.0302 0.3836
H50? H 0.5882 -0.0364 0.3694
loop_
_geom_bond_atom_site_label_1
_geom_bond_atom_site_label_2
_geom_bond_site_symmetry_1
_geom_bond_site_symmetry_2
Pt1 P1 1_555 1_555
P1 C15 1_555 1_555
P2 Pt1 1_555 1_555
N1 Pt1 1_555 1_555
N2 Pt1 1_555 1_555
O1 C6 1_555 1_555
O2 C6 1_555 1_555
O3 C8 1_555 1_555
O4 C9 1_555 1_555
C1 N1 1_555 1_555
H1 C1 1_555 1_555
C2 C1 1_555 1_555
H2 C2 1_555 1_555
C3 C2 1_555 1_555
C4 C3 1_555 1_555
H3 C4 1_555 1_555
C5 N1 1_555 1_555
H4 C5 1_555 1_555
C6 C3 1_555 1_555
C7 O2 1_555 1_555
H5 C7 1_555 1_555
H6 C7 1_555 1_555
C8 C7 1_555 1_555
H7 C8 1_555 1_555
H8 C8 1_555 1_555
C9 O3 1_555 1_555
C10 C9 1_555 1_555
C11 C10 1_555 1_555
H9 C11 1_555 1_555
C12 N2 1_555 1_555
H10 C12 1_555 1_555
C13 N2 1_555 1_555
H11 C13 1_555 1_555
C14 C10 1_555 1_555
H12 C14 1_555 1_555
C15 H13 1_555 1_555
H14 C15 1_555 1_555
C16 C15 1_555 1_555
H15 C16 1_555 1_555
H16 C16 1_555 1_555
C17 P2 1_555 1_555
H17 C17 1_555 1_555
H18 C17 1_555 1_555
C18 P1 1_555 1_555
C19 C18 1_555 1_555
H19 C19 1_555 1_555
C20 C19 1_555 1_555
H20 C20 1_555 1_555
C21 C20 1_555 1_555
H21 C21 1_555 1_555
C22 C21 1_555 1_555
H22 C22 1_555 1_555
C23 C18 1_555 1_555
H23 C23 1_555 1_555
C24 P1 1_555 1_555
C25 C24 1_555 1_555
H24 C25 1_555 1_555
C26 C25 1_555 1_555
H25 C26 1_555 1_555
C27 C26 1_555 1_555
H26 C27 1_555 1_555
C28 C27 1_555 1_555
H27 C28 1_555 1_555
C29 C24 1_555 1_555
H28 C29 1_555 1_555
C30 P2 1_555 1_555
C31 C30 1_555 1_555
H29 C31 1_555 1_555
C32 C31 1_555 1_555
H30 C32 1_555 1_555
C33 C32 1_555 1_555
H31 C33 1_555 1_555
C34 C33 1_555 1_555
H32 C34 1_555 1_555
C35 C30 1_555 1_555
H33 C35 1_555 1_555
C36 P2 1_555 1_555
C37 C36 1_555 1_555
H34 C37 1_555 1_555
C38 C37 1_555 1_555
H35 C38 1_555 1_555
C39 C38 1_555 1_555
H36 C39 1_555 1_555
C40 C39 1_555 1_555
H37 C40 1_555 1_555
C41 C36 1_555 1_555
H38 C41 1_555 1_555
S1 O5 1_555 1_555
O6 S1 1_555 1_555
O7 S1 1_555 1_555
F1 C42 1_555 1_555
F2 C42 1_555 1_555
F3 C42 1_555 1_555
C42 S1 1_555 1_555
S2 O8 1_555 1_555
O9 S2 1_555 1_555
O10 S2 1_555 1_555
F4 C43 1_555 1_555
F5 C43 1_555 1_555
F6 C43 1_555 1_555
C43 S2 1_555 1_555
O11 N3 1_555 1_555
O12 N3 1_555 1_555
N3 C44 1_555 1_555
C44 H39 1_555 1_555
H40 C44 1_555 1_555
H41 C44 1_555 1_555
O13 N4 1_555 1_555
O14 N4 1_555 1_555
N4 C45 1_555 1_555
C45 H42 1_555 1_555
H43 C45 1_555 1_555
H44 C45 1_555 1_555
O15 N5 1_555 1_555
O16 N5 1_555 1_555
N5 C46 1_555 1_555
C46 H45 1_555 1_555
H46 C46 1_555 1_555
H47 C46 1_555 1_555
C12B C11 1_555 1_555
N2B C12B 1_555 1_555
Pt1B N2B 1_555 1_555
P1B Pt1B 1_555 1_555
C15B P1B 1_555 1_555
H13B C15B 1_555 1_555
H14B C15B 1_555 1_555
C16B C15B 1_555 1_555
H15B C16B 1_555 1_555
H16B C16B 1_555 1_555
C17B C16B 1_555 1_555
P2B Pt1B 1_555 1_555
N1B Pt1B 1_555 1_555
C1B N1B 1_555 1_555
H1B C1B 1_555 1_555
C2B C1B 1_555 1_555
H2B C2B 1_555 1_555
C3B C2B 1_555 1_555
C4B C3B 1_555 1_555
H3B C4B 1_555 1_555
C5B N1B 1_555 1_555
H4B C5B 1_555 1_555
C6B C3B 1_555 1_555
O1B C6B 1_555 1_555
O2B C6B 1_555 1_555
C7B O2B 1_555 1_555
H5B C7B 1_555 1_555
H6B C7B 1_555 1_555
C8B C7B 1_555 1_555
O3B C8B 1_555 1_555
C9B O3B 1_555 1_555
O4B C9B 1_555 1_555
C10B C9B 1_555 1_555
C11B C12 1_555 1_555
H9B C11B 1_555 1_555
C14B C13 1_555 1_555
H12B C14B 1_555 1_555
H7B C8B 1_555 1_555
H8B C8B 1_555 1_555
C30B P2B 1_555 1_555
C31B C30B 1_555 1_555
H29B C31B 1_555 1_555
C32B C31B 1_555 1_555
H30B C32B 1_555 1_555
C33B C32B 1_555 1_555
H31B C33B 1_555 1_555
C34B C33B 1_555 1_555
H32B C34B 1_555 1_555
C35B C30B 1_555 1_555
H33B C35B 1_555 1_555
C36B P2B 1_555 1_555
C37B C36B 1_555 1_555
H34B C37B 1_555 1_555
C38B C37B 1_555 1_555
H35B C38B 1_555 1_555
C39B C38B 1_555 1_555
H36B C39B 1_555 1_555
C40B C39B 1_555 1_555
H37B C40B 1_555 1_555
C41B C36B 1_555 1_555
H38B C41B 1_555 1_555
H17B C17B 1_555 1_555
H18B C17B 1_555 1_555
C18B P1B 1_555 1_555
C19B C18B 1_555 1_555
H19B C19B 1_555 1_555
C20B C19B 1_555 1_555
H20B C20B 1_555 1_555
C21B C20B 1_555 1_555
H21B C21B 1_555 1_555
C22B C21B 1_555 1_555
H22B C22B 1_555 1_555
C23B C18B 1_555 1_555
H23B C23B 1_555 1_555
C24B P1B 1_555 1_555
C25B C24B 1_555 1_555
H24B C25B 1_555 1_555
C26B C25B 1_555 1_555
H25B C26B 1_555 1_555
C27B C26B 1_555 1_555
H26B C27B 1_555 1_555
C28B C27B 1_555 1_555
H27B C28B 1_555 1_555
C29B C24B 1_555 1_555
H28B C29B 1_555 1_555
C13B C14 1_555 1_555
H11B C13B 1_555 1_555
H10B C12B 1_555 1_555
C4 C5 1_555 1_555
C16 C17 1_555 1_555
C22 C23 1_555 1_555
C28 C29 1_555 1_555
C34 C35 1_555 1_555
C40 C41 1_555 1_555
N2B C13B 1_555 1_555
C17B P2B 1_555 1_555
C4B C5B 1_555 1_555
C10B C11B 1_555 1_555
C10B C14B 1_555 1_555
C34B C35B 1_555 1_555
C40B C41B 1_555 1_555
C22B C23B 1_555 1_555
C28B C29B 1_555 1_555

#END
