
#######################################################################
#
#                 Cambridge Crystallographic Data Centre
#                                CCDC 
#
#######################################################################
#
# If this CIF has been generated from an entry in the Cambridge 
# Structural Database, then it will include bibliographic, chemical, 
# crystal, experimental, refinement or atomic coordinate data resulting 
# from the CCDC's data processing and validation procedures.
#
#######################################################################

data_XAFYOT
_chemical_formula_moiety         
'C42 H64 N4 O8 P4 Pt2 4+,4(C1 F3 O3 S1 1-),1.5(C2 H6 O1)'
_chemical_name_systematic        
'bis(\m~2~-propylene bis(pyridine-4-carboxylate))-tetrakis(trimethylphosphine)-di-platinum(ii) tetrakis(trifluoromethanesulfonate) ethanol solvate'
_symmetry_cell_setting           triclinic
_symmetry_space_group_name_H-M   'P -1'
_symmetry_Int_Tables_number      2
_space_group_name_Hall           '-P 1'
loop_
_symmetry_equiv_pos_site_id
_symmetry_equiv_pos_as_xyz
1 x,y,z
2 -x,-y,-z
_cell_length_a                   8.8035(2)
_cell_length_b                   9.1015(2)
_cell_length_c                   23.3350(7)
_cell_angle_alpha                89.8587(7)
_cell_angle_beta                 88.1624(8)
_cell_angle_gamma                80.5377(16)
_cell_volume                     1843.32
_exptl_crystal_colour            colorless
_exptl_crystal_description       plate
_cell_formula_units_Z            1
loop_
_atom_site_label
_atom_site_type_symbol
_atom_site_fract_x
_atom_site_fract_y
_atom_site_fract_z
Pt1 Pt 0.11299(2) -0.02680(2) 0.810198(9)
P1 P 0.29787(15) 0.04220(15) 0.86401(7)
P2 P 0.07111(16) -0.22084(14) 0.86575(7)
O1 O 0.0500(5) 0.5267(5) 0.5943(2)
O2 O 0.2452(5) 0.3518(4) 0.56300(18)
O3 O 0.3200(4) 0.1922(4) 0.41978(19)
O4 O 0.4485(5) -0.0355(5) 0.3975(2)
N1 N 0.1394(5) 0.1394(5) 0.7498(2)
N2 N -0.0534(5) -0.0689(5) 0.7522(2)
C1 C 0.0457(6) 0.2717(5) 0.7476(2)
H1 H -0.0228 0.3019 0.7793
C2 C 0.0457(6) 0.3647(5) 0.7012(3)
H2 H -0.0208 0.4582 0.7009
C3 C 0.1441(6) 0.3200(5) 0.6547(2)
C4 C 0.2432(6) 0.1862(6) 0.6573(3)
H3 H 0.3145 0.1555 0.6265
C5 C 0.2375(6) 0.0984(6) 0.7046(3)
H4 H 0.3048 0.0056 0.7059
C6 C 0.1404(6) 0.4142(6) 0.6010(3)
C7 C 0.2606(7) 0.4294(6) 0.5096(3)
H5 H 0.2594 0.5368 0.5168
H6 H 0.1750 0.4186 0.4843
C8 C 0.4137(7) 0.3589(7) 0.4822(3)
H7 H 0.4327 0.4157 0.4472
H8 H 0.4963 0.3686 0.5090
C9 C 0.4252(7) 0.1985(7) 0.4663(3)
H9 H 0.5320 0.1569 0.4536
H10 H 0.3958 0.1403 0.4995
C10 C 0.3506(6) 0.0715(7) 0.3880(3)
C11 C 0.2460(6) 0.0755(6) 0.3383(3)
C12 C 0.2876(6) -0.0201(6) 0.2934(3)
H11 H 0.3836 -0.0855 0.2933
C13 C -0.1909(6) 0.0221(6) 0.7518(3)
H12 H -0.2213 0.0884 0.7830
C14 C -0.0116(6) -0.1647(6) 0.7079(3)
H13 H 0.0854 -0.2284 0.7083
C15 C 0.1057(6) 0.1719(6) 0.3373(3)
H14 H 0.0757 0.2415 0.3674
C16 C 0.3360(7) 0.2257(6) 0.8458(3)
H15 H 0.2433 0.2992 0.8538
H16 H 0.3650 0.2286 0.8049
H17 H 0.4205 0.2489 0.8686
C17 C 0.2619(7) 0.0585(7) 0.9399(3)
H18 H 0.3483 0.0944 0.9577
H19 H 0.2507 -0.0391 0.9558
H20 H 0.1669 0.1292 0.9478
C18 C 0.4830(7) -0.0759(7) 0.8530(3)
H21 H 0.5639 -0.0265 0.8684
H22 H 0.5032 -0.0944 0.8119
H23 H 0.4821 -0.1709 0.8728
C19 C 0.2347(7) -0.3351(6) 0.8957(3)
H24 H 0.2789 -0.2779 0.9246
H25 H 0.3122 -0.3670 0.8653
H26 H 0.2024 -0.4229 0.9138
C20 C -0.0150(9) -0.3560(7) 0.8261(3)
H27 H 0.0518 -0.3914 0.7929
H28 H -0.1162 -0.3091 0.8130
H29 H -0.0271 -0.4403 0.8511
C21 C -0.0644(6) -0.1663(6) 0.9246(3)
H30 H -0.0888 -0.2555 0.9441
H31 H -0.1589 -0.1085 0.9099
H32 H -0.0191 -0.1053 0.9518
C13A C 0.1909(6) -0.0221(6) 0.2482(3)
N2A N 0.0534(5) 0.0689(5) 0.2478(2)
Pt1A Pt -0.11299(2) 0.02680(2) 0.189802(9)
P1A P -0.29787(15) -0.04220(15) 0.13599(7)
C16A C -0.3360(7) -0.2257(6) 0.1542(3)
H15A H -0.2433 -0.2992 0.1462
H16A H -0.3650 -0.2286 0.1951
H17A H -0.4205 -0.2489 0.1314
C17A C -0.2619(7) -0.0585(7) 0.0601(3)
H18A H -0.3483 -0.0944 0.0423
H19A H -0.2507 0.0391 0.0442
H20A H -0.1669 -0.1292 0.0522
C18A C -0.4830(7) 0.0759(7) 0.1470(3)
H21A H -0.5639 0.0265 0.1316
H22A H -0.5032 0.0944 0.1881
H23A H -0.4821 0.1709 0.1272
P2A P -0.07111(16) 0.22084(14) 0.13425(7)
C19A C -0.2347(7) 0.3351(6) 0.1043(3)
H24A H -0.2789 0.2779 0.0754
H25A H -0.3122 0.3670 0.1347
H26A H -0.2024 0.4229 0.0862
C20A C 0.0150(9) 0.3560(7) 0.1739(3)
H27A H -0.0518 0.3914 0.2071
H28A H 0.1162 0.3091 0.1870
H29A H 0.0271 0.4403 0.1489
C21A C 0.0644(6) 0.1663(6) 0.0754(3)
H30A H 0.0888 0.2555 0.0559
H31A H 0.1589 0.1085 0.0901
H32A H 0.0191 0.1053 0.0482
N1A N -0.1394(5) -0.1394(5) 0.2502(2)
C1A C -0.0457(6) -0.2717(5) 0.2524(2)
H1A H 0.0228 -0.3019 0.2207
C2A C -0.0457(6) -0.3647(5) 0.2988(3)
H2A H 0.0208 -0.4582 0.2991
C3A C -0.1441(6) -0.3200(5) 0.3453(2)
C4A C -0.2432(6) -0.1862(6) 0.3427(3)
H3A H -0.3145 -0.1555 0.3735
C5A C -0.2375(6) -0.0984(6) 0.2954(3)
H4A H -0.3048 -0.0056 0.2941
C6A C -0.1404(6) -0.4142(6) 0.3990(3)
O1A O -0.0500(5) -0.5267(5) 0.4057(2)
O2A O -0.2452(5) -0.3518(4) 0.43700(18)
C7A C -0.2606(7) -0.4294(6) 0.4904(3)
H5A H -0.2594 -0.5368 0.4832
H6A H -0.1750 -0.4186 0.5157
C8A C -0.4137(7) -0.3589(7) 0.5178(3)
H7A H -0.4327 -0.4157 0.5528
H8A H -0.4963 -0.3686 0.4910
C9A C -0.4252(7) -0.1985(7) 0.5337(3)
O3A O -0.3200(4) -0.1922(4) 0.58022(19)
C10A C -0.3506(6) -0.0715(7) 0.6120(3)
O4A O -0.4485(5) 0.0355(5) 0.6025(2)
C11A C -0.2460(6) -0.0755(6) 0.6617(3)
C12A C -0.2876(6) 0.0201(6) 0.7066(3)
H11A H -0.3836 0.0855 0.7067
C15A C -0.1057(6) -0.1719(6) 0.6627(3)
H14A H -0.0757 -0.2415 0.6326
H9A H -0.5320 -0.1569 0.5464
H10A H -0.3958 -0.1403 0.5005
C14A C 0.0116(6) 0.1647(6) 0.2921(3)
H13A H -0.0854 0.2284 0.2917
H12A H 0.2213 -0.0884 0.2170
S1 S 0.18516(15) 0.73747(15) 0.08828(6)
F1 F 0.4491(5) 0.5953(5) 0.0490(2)
F2 F 0.2612(5) 0.4822(4) 0.0349(2)
F3 F 0.3543(7) 0.4874(6) 0.1180(3)
O5 O 0.1576(6) 0.8040(5) 0.0337(2)
O6 O 0.0550(5) 0.6861(5) 0.1150(2)
O7 O 0.2691(5) 0.8169(6) 0.1258(2)
C22 C 0.3184(7) 0.5682(7) 0.0722(3)
S2 S 0.5889(2) 0.3614(2) 0.29911(11)
F4 F 0.4482(12) 0.6287(7) 0.2853(6)
F5 F 0.3439(10) 0.4678(16) 0.2431(4)
F6 F 0.3192(7) 0.4907(8) 0.3357(3)
O8 O 0.5347(9) 0.2192(6) 0.2981(5)
O9 O 0.6379(10) 0.4003(13) 0.3522(4)
O10 O 0.6872(12) 0.3873(14) 0.2514(6)
C23 C 0.4196(9) 0.4940(9) 0.2916(4)
C24 C 0.1796(8) 0.7576(6) 0.4213(3)
H33 H 0.1800 0.6498 0.4220
H34 H 0.2858 0.7770 0.4216
H35 H 0.1305 0.7998 0.3865
C25 C 0.0959(8) 0.8245(6) 0.4705(3)
H36 H 0.1442 0.7821 0.5059
H37 H -0.0116 0.8054 0.4706
O11 O 0.0982(8) 0.9852(6) 0.4680(3)
H38 H -0.0112 0.9956 0.4477
loop_
_geom_bond_atom_site_label_1
_geom_bond_atom_site_label_2
_geom_bond_site_symmetry_1
_geom_bond_site_symmetry_2
Pt1 P1 1_555 1_555
P1 C16 1_555 1_555
P2 Pt1 1_555 1_555
O1 C6 1_555 1_555
O2 C6 1_555 1_555
O3 C9 1_555 1_555
O4 C10 1_555 1_555
N1 Pt1 1_555 1_555
N2 Pt1 1_555 1_555
C1 N1 1_555 1_555
H1 C1 1_555 1_555
C2 C1 1_555 1_555
H2 C2 1_555 1_555
C3 C2 1_555 1_555
C4 C3 1_555 1_555
H3 C4 1_555 1_555
C5 N1 1_555 1_555
H4 C5 1_555 1_555
C6 C3 1_555 1_555
C7 O2 1_555 1_555
H5 C7 1_555 1_555
H6 C7 1_555 1_555
C8 C7 1_555 1_555
H7 C8 1_555 1_555
H8 C8 1_555 1_555
C9 C8 1_555 1_555
H9 C9 1_555 1_555
H10 C9 1_555 1_555
C10 O3 1_555 1_555
C11 C10 1_555 1_555
C12 C11 1_555 1_555
H11 C12 1_555 1_555
C13 N2 1_555 1_555
H12 C13 1_555 1_555
C14 N2 1_555 1_555
H13 C14 1_555 1_555
C15 C11 1_555 1_555
H14 C15 1_555 1_555
C16 H15 1_555 1_555
H16 C16 1_555 1_555
H17 C16 1_555 1_555
C17 P1 1_555 1_555
H18 C17 1_555 1_555
H19 C17 1_555 1_555
H20 C17 1_555 1_555
C18 P1 1_555 1_555
H21 C18 1_555 1_555
H22 C18 1_555 1_555
H23 C18 1_555 1_555
C19 P2 1_555 1_555
H24 C19 1_555 1_555
H25 C19 1_555 1_555
H26 C19 1_555 1_555
C20 P2 1_555 1_555
H27 C20 1_555 1_555
H28 C20 1_555 1_555
H29 C20 1_555 1_555
C21 P2 1_555 1_555
H30 C21 1_555 1_555
H31 C21 1_555 1_555
H32 C21 1_555 1_555
S1 O5 1_555 1_555
F1 C22 1_555 1_555
F2 C22 1_555 1_555
F3 C22 1_555 1_555
O6 S1 1_555 1_555
O7 S1 1_555 1_555
C22 S1 1_555 1_555
S2 O8 1_555 1_555
F4 C23 1_555 1_555
F5 C23 1_555 1_555
F6 C23 1_555 1_555
O9 S2 1_555 1_555
O10 S2 1_555 1_555
C23 S2 1_555 1_555
C24 H33 1_555 1_555
H34 C24 1_555 1_555
H35 C24 1_555 1_555
C25 C24 1_555 1_555
H36 C25 1_555 1_555
H37 C25 1_555 1_555
O11 C25 1_555 1_555
H38 O11 1_555 1_555
C13A C12 1_555 1_555
N2A C13A 1_555 1_555
Pt1A N2A 1_555 1_555
P1A Pt1A 1_555 1_555
C16A P1A 1_555 1_555
H15A C16A 1_555 1_555
H16A C16A 1_555 1_555
H17A C16A 1_555 1_555
C17A P1A 1_555 1_555
H18A C17A 1_555 1_555
H19A C17A 1_555 1_555
H20A C17A 1_555 1_555
C18A P1A 1_555 1_555
H21A C18A 1_555 1_555
H22A C18A 1_555 1_555
H23A C18A 1_555 1_555
P2A Pt1A 1_555 1_555
C19A P2A 1_555 1_555
H24A C19A 1_555 1_555
H25A C19A 1_555 1_555
H26A C19A 1_555 1_555
C20A P2A 1_555 1_555
H27A C20A 1_555 1_555
H28A C20A 1_555 1_555
H29A C20A 1_555 1_555
C21A P2A 1_555 1_555
H30A C21A 1_555 1_555
H31A C21A 1_555 1_555
H32A C21A 1_555 1_555
N1A Pt1A 1_555 1_555
C1A N1A 1_555 1_555
H1A C1A 1_555 1_555
C2A C1A 1_555 1_555
H2A C2A 1_555 1_555
C3A C2A 1_555 1_555
C4A C3A 1_555 1_555
H3A C4A 1_555 1_555
C5A N1A 1_555 1_555
H4A C5A 1_555 1_555
C6A C3A 1_555 1_555
O1A C6A 1_555 1_555
O2A C6A 1_555 1_555
C7A O2A 1_555 1_555
H5A C7A 1_555 1_555
H6A C7A 1_555 1_555
C8A C7A 1_555 1_555
H7A C8A 1_555 1_555
H8A C8A 1_555 1_555
C9A C8A 1_555 1_555
O3A C9A 1_555 1_555
C10A O3A 1_555 1_555
O4A C10A 1_555 1_555
C11A C10A 1_555 1_555
C12A C13 1_555 1_555
H11A C12A 1_555 1_555
C15A C14 1_555 1_555
H14A C15A 1_555 1_555
H9A C9A 1_555 1_555
H10A C9A 1_555 1_555
C14A C15 1_555 1_555
H13A C14A 1_555 1_555
H12A C13A 1_555 1_555
C4 C5 1_555 1_555
N2A C14A 1_555 1_555
C4A C5A 1_555 1_555
C11A C12A 1_555 1_555
C11A C15A 1_555 1_555

#END
