
#######################################################################
#
#                 Cambridge Crystallographic Data Centre
#                                CCDC 
#
#######################################################################
#
# If this CIF has been generated from an entry in the Cambridge 
# Structural Database, then it will include bibliographic, chemical, 
# crystal, experimental, refinement or atomic coordinate data resulting 
# from the CCDC's data processing and validation procedures.
#
#######################################################################

data_XAFYUZ
_chemical_formula_moiety         
'C86 H76 N4 O8 P4 Pd2 4+,4(C1 F3 O3 S1 1-),C1 H4 O1'
_chemical_name_systematic        
'bis(\m~2~-but-2-yne-1,4-diyl bis(pyridine-4-carboxylate))-bis(1,3-bis(diphenylphosphino)propane)-di-palladium(ii) tetrakis(trifluoromethanesulfonate) methanol solvate'
_symmetry_cell_setting           monoclinic
_symmetry_space_group_name_H-M   'P 21/n'
_symmetry_Int_Tables_number      14
_space_group_name_Hall           '-P 2yn'
loop_
_symmetry_equiv_pos_site_id
_symmetry_equiv_pos_as_xyz
1 x,y,z
2 1/2-x,1/2+y,1/2-z
3 -x,-y,-z
4 1/2+x,1/2-y,1/2+z
_cell_length_a                   12.8418(3)
_cell_length_b                   28.6558(7)
_cell_length_c                   14.1269(4)
_cell_angle_alpha                90
_cell_angle_beta                 105.4719(10)
_cell_angle_gamma                90
_cell_volume                     5010.2
_exptl_crystal_colour            colorless
_exptl_crystal_description       prism
_cell_formula_units_Z            2
loop_
_atom_site_label
_atom_site_type_symbol
_atom_site_fract_x
_atom_site_fract_y
_atom_site_fract_z
Pd1 Pd 1.00259(3) 0.148679(14) 0.23803(3)
P1 P 1.09675(11) 0.15325(5) 0.39886(11)
P2 P 1.15247(11) 0.16647(5) 0.18776(11)
O1 O 0.5136(4) 0.13113(17) 0.3752(5)
O2 O 0.5442(3) 0.05613(13) 0.3535(3)
O3 O 0.3099(3) -0.09667(13) 0.2376(3)
O4 O 0.2728(4) -0.17120(15) 0.2621(3)
N1 N 0.8586(3) 0.13111(15) 0.2752(3)
N2 N 0.9109(3) 0.14342(14) 0.0902(3)
C1 C 0.7992(5) 0.1651(2) 0.2998(5)
H1 H 0.8226 0.1965 0.2995
C2 C 0.7054(5) 0.1557(2) 0.3253(5)
H2 H 0.6655 0.1804 0.3435
C3 C 0.6691(4) 0.11014(19) 0.3245(4)
C4 C 0.7289(4) 0.07555(19) 0.2961(4)
H3 H 0.7055 0.0440 0.2926
C5 C 0.8237(4) 0.08733(19) 0.2726(4)
H4 H 0.8651 0.0633 0.2541
C6 C 0.5678(4) 0.1010(2) 0.3534(5)
C7 C 0.4451(4) 0.0457(2) 0.3823(4)
H5 H 0.4541 0.0542 0.4520
H6 H 0.3837 0.0637 0.3413
C8 C 0.4249(4) -0.0040(2) 0.3683(4)
C9 C 0.4019(4) -0.0447(2) 0.3576(4)
C10 C 0.3697(5) -0.0932(2) 0.3404(4)
H7 H 0.3236 -0.1027 0.3833
H8 H 0.4341 -0.1137 0.3544
C11 C 0.2653(4) -0.1380(2) 0.2084(4)
C12 C 0.2065(4) -0.13892(18) 0.1036(4)
C13 C 0.1618(4) -0.0990(2) 0.0529(4)
H9 H 0.1720 -0.0695 0.0848
C14 C 0.8970(4) 0.10236(18) 0.0429(4)
H10 H 0.9287 0.0751 0.0768
C15 C 0.8662(4) 0.18194(19) 0.0424(4)
H11 H 0.8750 0.2109 0.0764
C16 C 0.1917(4) -0.18074(19) 0.0537(4)
H12 H 0.2217 -0.2086 0.0861
C17 C 1.2006(5) 0.1974(2) 0.4268(5)
H13 H 1.1660 0.2283 0.4111
H14 H 1.2358 0.1966 0.4982
C18 C 1.2875(4) 0.1922(2) 0.3719(5)
H15 H 1.3503 0.2118 0.4045
H16 H 1.3120 0.1593 0.3762
C19 C 1.2490(5) 0.2061(2) 0.2645(4)
H17 H 1.3126 0.2085 0.2377
H18 H 1.2157 0.2374 0.2603
C20 C 1.1611(4) 0.0985(2) 0.4447(4)
C21 C 1.1184(6) 0.0573(2) 0.4004(5)
H19 H 1.0576 0.0582 0.3447
C22 C 1.1635(7) 0.0141(3) 0.4362(6)
H20 H 1.1335 -0.0142 0.4059
C23 C 1.2517(7) 0.0139(4) 0.5158(7)
H21 H 1.2842 -0.0150 0.5401
C24 C 1.2945(6) 0.0546(4) 0.5616(6)
H22 H 1.3548 0.0533 0.6178
C25 C 1.2511(5) 0.0975(3) 0.5271(5)
H23 H 1.2814 0.1256 0.5583
C26 C 1.0113(5) 0.1683(2) 0.4776(4)
C27 C 0.9750(6) 0.2140(2) 0.4795(5)
H24 H 0.9970 0.2371 0.4406
C28 C 0.9074(7) 0.2263(3) 0.5370(6)
H25 H 0.8825 0.2575 0.5370
C29 C 0.8763(7) 0.1930(3) 0.5945(6)
H26 H 0.8293 0.2010 0.6337
C30 C 0.9142(6) 0.1476(3) 0.5946(6)
H27 H 0.8940 0.1248 0.6352
C31 C 0.9812(5) 0.1350(2) 0.5363(5)
H28 H 1.0061 0.1038 0.5367
C32 C 1.2279(5) 0.1151(2) 0.1725(4)
C33 C 1.1865(5) 0.0711(2) 0.1810(5)
H29 H 1.1211 0.0682 0.1998
C34 C 1.2391(7) 0.0314(3) 0.1626(6)
H30 H 1.2097 0.0014 0.1682
C35 C 1.3324(8) 0.0355(4) 0.1366(6)
H31 H 1.3692 0.0082 0.1248
C36 C 1.3742(7) 0.0784(4) 0.1272(6)
H32 H 1.4398 0.0808 0.1085
C37 C 1.3224(6) 0.1189(3) 0.1445(5)
H33 H 1.3517 0.1487 0.1370
C38 C 1.1172(4) 0.19402(19) 0.0674(4)
C39 C 1.1006(4) 0.1665(2) -0.0162(4)
H34 H 1.1128 0.1338 -0.0102
C40 C 1.0658(5) 0.1869(2) -0.1090(5)
H35 H 1.0533 0.1681 -0.1664
C41 C 1.0498(5) 0.2348(2) -0.1172(5)
H36 H 1.0282 0.2489 -0.1802
C42 C 1.0655(5) 0.2620(2) -0.0328(5)
H37 H 1.0533 0.2948 -0.0385
C43 C 1.0984(4) 0.2419(2) 0.0583(4)
H38 H 1.1084 0.2606 0.1155
C14B C 0.1030(4) -0.10236(18) -0.0429(4)
N2B N 0.0891(3) -0.14342(14) -0.0902(3)
Pd1B Pd -0.00259(3) -0.148679(14) -0.23803(3)
P1B P -0.09675(11) -0.15325(5) -0.39886(11)
C17B C -0.2006(5) -0.1974(2) -0.4268(5)
H13B H -0.1660 -0.2283 -0.4111
H14B H -0.2358 -0.1966 -0.4982
C18B C -0.2875(4) -0.1922(2) -0.3719(5)
H15B H -0.3503 -0.2118 -0.4045
H16B H -0.3120 -0.1593 -0.3762
C19B C -0.2490(5) -0.2061(2) -0.2645(4)
P2B P -0.15247(11) -0.16647(5) -0.18776(11)
N1B N 0.1414(3) -0.13111(15) -0.2752(3)
C1B C 0.2008(5) -0.1651(2) -0.2998(5)
H1B H 0.1774 -0.1965 -0.2995
C2B C 0.2946(5) -0.1557(2) -0.3253(5)
H2B H 0.3345 -0.1804 -0.3435
C3B C 0.3309(4) -0.11014(19) -0.3245(4)
C4B C 0.2711(4) -0.07555(19) -0.2961(4)
H3B H 0.2945 -0.0440 -0.2926
C5B C 0.1763(4) -0.08733(19) -0.2726(4)
H4B H 0.1349 -0.0633 -0.2541
C6B C 0.4322(4) -0.1010(2) -0.3534(5)
O1B O 0.4864(4) -0.13113(17) -0.3752(5)
O2B O 0.4558(3) -0.05613(13) -0.3535(3)
C7B C 0.5549(4) -0.0457(2) -0.3823(4)
H5B H 0.5459 -0.0542 -0.4520
H6B H 0.6163 -0.0637 -0.3413
C8B C 0.5751(4) 0.0040(2) -0.3683(4)
C9B C 0.5981(4) 0.0447(2) -0.3576(4)
C10B C 0.6303(5) 0.0932(2) -0.3404(4)
O3B O 0.6901(3) 0.09667(13) -0.2376(3)
C11B C 0.7347(4) 0.1380(2) -0.2084(4)
O4B O 0.7272(4) 0.17120(15) -0.2621(3)
C12B C 0.7935(4) 0.13892(18) -0.1036(4)
C13B C 0.8382(4) 0.0990(2) -0.0529(4)
H9B H 0.8280 0.0695 -0.0848
C16B C 0.8083(4) 0.18074(19) -0.0537(4)
H12B H 0.7783 0.2086 -0.0861
H7B H 0.6764 0.1027 -0.3833
H8B H 0.5659 0.1137 -0.3544
C32B C -0.2279(5) -0.1151(2) -0.1725(4)
C33B C -0.1865(5) -0.0711(2) -0.1810(5)
H29B H -0.1211 -0.0682 -0.1998
C34B C -0.2391(7) -0.0314(3) -0.1626(6)
H30B H -0.2097 -0.0014 -0.1682
C35B C -0.3324(8) -0.0355(4) -0.1366(6)
H31B H -0.3692 -0.0082 -0.1248
C36B C -0.3742(7) -0.0784(4) -0.1272(6)
H32B H -0.4398 -0.0808 -0.1085
C37B C -0.3224(6) -0.1189(3) -0.1445(5)
H33B H -0.3517 -0.1487 -0.1370
C38B C -0.1172(4) -0.19402(19) -0.0674(4)
C39B C -0.1006(4) -0.1665(2) 0.0162(4)
H34B H -0.1128 -0.1338 0.0102
C40B C -0.0658(5) -0.1869(2) 0.1090(5)
H35B H -0.0533 -0.1681 0.1664
C41B C -0.0498(5) -0.2348(2) 0.1172(5)
H36B H -0.0282 -0.2489 0.1802
C42B C -0.0655(5) -0.2620(2) 0.0328(5)
H37B H -0.0533 -0.2948 0.0385
C43B C -0.0984(4) -0.2419(2) -0.0583(4)
H38B H -0.1084 -0.2606 -0.1155
H17B H -0.3126 -0.2085 -0.2377
H18B H -0.2157 -0.2374 -0.2603
C20B C -0.1611(4) -0.0985(2) -0.4447(4)
C21B C -0.1184(6) -0.0573(2) -0.4004(5)
H19B H -0.0576 -0.0582 -0.3447
C22B C -0.1635(7) -0.0141(3) -0.4362(6)
H20B H -0.1335 0.0142 -0.4059
C23B C -0.2517(7) -0.0139(4) -0.5158(7)
H21B H -0.2842 0.0150 -0.5401
C24B C -0.2945(6) -0.0546(4) -0.5616(6)
H22B H -0.3548 -0.0533 -0.6178
C25B C -0.2511(5) -0.0975(3) -0.5271(5)
H23B H -0.2814 -0.1256 -0.5583
C26B C -0.0113(5) -0.1683(2) -0.4776(4)
C27B C 0.0250(6) -0.2140(2) -0.4795(5)
H24B H 0.0030 -0.2371 -0.4406
C28B C 0.0926(7) -0.2263(3) -0.5370(6)
H25B H 0.1175 -0.2575 -0.5370
C29B C 0.1237(7) -0.1930(3) -0.5945(6)
H26B H 0.1707 -0.2010 -0.6337
C30B C 0.0858(6) -0.1476(3) -0.5946(6)
H27B H 0.1060 -0.1248 -0.6352
C31B C 0.0188(5) -0.1350(2) -0.5363(5)
H28B H -0.0061 -0.1038 -0.5367
C15B C 0.1338(4) -0.18194(19) -0.0424(4)
H11B H 0.1250 -0.2109 -0.0764
H10B H 0.0713 -0.0751 -0.0768
S1 S 0.03440(19) 0.03489(7) 0.8295(2)
O5 O 0.0263(4) -0.01358(15) 0.8072(4)
O6 O -0.0578(6) 0.0618(2) 0.7729(5)
O7 O 0.0703(6) 0.0481(3) 0.9287(5)
F1 F 0.0834(8) 0.0356(3) 0.6597(8)
F2 F 0.1318(8) 0.0961(3) 0.7441(10)
F3 F 0.2202(8) 0.0306(4) 0.7881(12)
C44 C 0.1204(12) 0.0505(5) 0.7495(13)
S2 S 0.44306(13) 0.20213(6) 0.73301(13)
O8 O 0.4478(7) 0.24990(18) 0.7414(5)
O9 O 0.4345(5) 0.1822(2) 0.6388(4)
O10 O 0.5244(7) 0.1826(4) 0.8087(6)
F4 F 0.2712(11) 0.1526(4) 0.7422(12)
F5 F 0.2384(7) 0.2242(5) 0.6949(9)
F6 F 0.3083(8) 0.2098(4) 0.8462(8)
C45 C 0.3085(11) 0.1972(5) 0.7541(12)
O11 O 0.6219(14) 0.1288(6) 0.0702(12)
H39 H 0.6878 0.1318 0.0994
C46 C 0.5760(15) 0.1693(7) 0.0593(15)
H40 H 0.5871 0.1843 0.1237
H41 H 0.4984 0.1656 0.0289
H42 H 0.6077 0.1888 0.0172
O12 O 0.545(3) 0.0794(14) -0.079(3)
H43 H 0.5628 0.0934 -0.1244
C47 C 0.461(3) 0.0559(13) -0.114(3)
H44 H 0.4594 0.0289 -0.0719
H45 H 0.4597 0.0452 -0.1801
H46 H 0.3970 0.0755 -0.1175
S3? S 0.0336(12) 0.0329(6) 0.7668(14)
F7? F 0.2415(13) 0.0140(6) 0.8819(13)
F8? F 0.2067(11) 0.0888(5) 0.8670(10)
F9? F 0.1879(19) 0.0483(9) 0.7408(17)
C48? C 0.1713(16) 0.0476(7) 0.8307(18)
F10? F 0.3647(11) 0.1289(5) 0.7862(9)
F11? F 0.2447(12) 0.1800(6) 0.7103(11)
F12? F 0.3444(11) 0.1875(5) 0.8631(10)
C49? C 0.3406(15) 0.1737(7) 0.7770(15)
loop_
_geom_bond_atom_site_label_1
_geom_bond_atom_site_label_2
_geom_bond_site_symmetry_1
_geom_bond_site_symmetry_2
Pd1 P1 1_555 1_555
P1 C17 1_555 1_555
P2 Pd1 1_555 1_555
O1 C6 1_555 1_555
O2 C6 1_555 1_555
O3 C10 1_555 1_555
O4 C11 1_555 1_555
N1 Pd1 1_555 1_555
N2 Pd1 1_555 1_555
C1 N1 1_555 1_555
H1 C1 1_555 1_555
C2 C1 1_555 1_555
H2 C2 1_555 1_555
C3 C2 1_555 1_555
C4 C3 1_555 1_555
H3 C4 1_555 1_555
C5 N1 1_555 1_555
H4 C5 1_555 1_555
C6 C3 1_555 1_555
C7 O2 1_555 1_555
H5 C7 1_555 1_555
H6 C7 1_555 1_555
C8 C7 1_555 1_555
C9 C8 1_555 1_555
C10 C9 1_555 1_555
H7 C10 1_555 1_555
H8 C10 1_555 1_555
C11 O3 1_555 1_555
C12 C11 1_555 1_555
C13 C12 1_555 1_555
H9 C13 1_555 1_555
C14 N2 1_555 1_555
H10 C14 1_555 1_555
C15 N2 1_555 1_555
H11 C15 1_555 1_555
C16 C12 1_555 1_555
H12 C16 1_555 1_555
C17 H13 1_555 1_555
H14 C17 1_555 1_555
C18 C17 1_555 1_555
H15 C18 1_555 1_555
H16 C18 1_555 1_555
C19 P2 1_555 1_555
H17 C19 1_555 1_555
H18 C19 1_555 1_555
C20 P1 1_555 1_555
C21 C20 1_555 1_555
H19 C21 1_555 1_555
C22 C21 1_555 1_555
H20 C22 1_555 1_555
C23 C22 1_555 1_555
H21 C23 1_555 1_555
C24 C23 1_555 1_555
H22 C24 1_555 1_555
C25 C20 1_555 1_555
H23 C25 1_555 1_555
C26 P1 1_555 1_555
C27 C26 1_555 1_555
H24 C27 1_555 1_555
C28 C27 1_555 1_555
H25 C28 1_555 1_555
C29 C28 1_555 1_555
H26 C29 1_555 1_555
C30 C29 1_555 1_555
H27 C30 1_555 1_555
C31 C26 1_555 1_555
H28 C31 1_555 1_555
C32 P2 1_555 1_555
C33 C32 1_555 1_555
H29 C33 1_555 1_555
C34 C33 1_555 1_555
H30 C34 1_555 1_555
C35 C34 1_555 1_555
H31 C35 1_555 1_555
C36 C35 1_555 1_555
H32 C36 1_555 1_555
C37 C32 1_555 1_555
H33 C37 1_555 1_555
C38 P2 1_555 1_555
C39 C38 1_555 1_555
H34 C39 1_555 1_555
C40 C39 1_555 1_555
H35 C40 1_555 1_555
C41 C40 1_555 1_555
H36 C41 1_555 1_555
C42 C41 1_555 1_555
H37 C42 1_555 1_555
C43 C38 1_555 1_555
H38 C43 1_555 1_555
S1 O5 1_555 1_555
O6 S1 1_555 1_555
O7 S1 1_555 1_555
F1 C44 1_555 1_555
F2 C44 1_555 1_555
F3 C44 1_555 1_555
C44 S1 1_555 1_555
S2 O8 1_555 1_555
O9 S2 1_555 1_555
O10 S2 1_555 1_555
F4 C45 1_555 1_555
F5 C45 1_555 1_555
F6 C45 1_555 1_555
C45 S2 1_555 1_555
O11 H39 1_555 1_555
C46 O11 1_555 1_555
H40 C46 1_555 1_555
H41 C46 1_555 1_555
H42 C46 1_555 1_555
O12 H43 1_555 1_555
C47 O12 1_555 1_555
H44 C47 1_555 1_555
H45 C47 1_555 1_555
H46 C47 1_555 1_555
C14B C13 1_555 1_555
N2B C14B 1_555 1_555
Pd1B N2B 1_555 1_555
P1B Pd1B 1_555 1_555
C17B P1B 1_555 1_555
H13B C17B 1_555 1_555
H14B C17B 1_555 1_555
C18B C17B 1_555 1_555
H15B C18B 1_555 1_555
H16B C18B 1_555 1_555
C19B C18B 1_555 1_555
P2B Pd1B 1_555 1_555
N1B Pd1B 1_555 1_555
C1B N1B 1_555 1_555
H1B C1B 1_555 1_555
C2B C1B 1_555 1_555
H2B C2B 1_555 1_555
C3B C2B 1_555 1_555
C4B C3B 1_555 1_555
H3B C4B 1_555 1_555
C5B N1B 1_555 1_555
H4B C5B 1_555 1_555
C6B C3B 1_555 1_555
O1B C6B 1_555 1_555
O2B C6B 1_555 1_555
C7B O2B 1_555 1_555
H5B C7B 1_555 1_555
H6B C7B 1_555 1_555
C8B C7B 1_555 1_555
C9B C8B 1_555 1_555
C10B C9B 1_555 1_555
O3B C10B 1_555 1_555
C11B O3B 1_555 1_555
O4B C11B 1_555 1_555
C12B C11B 1_555 1_555
C13B C14 1_555 1_555
H9B C13B 1_555 1_555
C16B C15 1_555 1_555
H12B C16B 1_555 1_555
H7B C10B 1_555 1_555
H8B C10B 1_555 1_555
C32B P2B 1_555 1_555
C33B C32B 1_555 1_555
H29B C33B 1_555 1_555
C34B C33B 1_555 1_555
H30B C34B 1_555 1_555
C35B C34B 1_555 1_555
H31B C35B 1_555 1_555
C36B C35B 1_555 1_555
H32B C36B 1_555 1_555
C37B C32B 1_555 1_555
H33B C37B 1_555 1_555
C38B P2B 1_555 1_555
C39B C38B 1_555 1_555
H34B C39B 1_555 1_555
C40B C39B 1_555 1_555
H35B C40B 1_555 1_555
C41B C40B 1_555 1_555
H36B C41B 1_555 1_555
C42B C41B 1_555 1_555
H37B C42B 1_555 1_555
C43B C38B 1_555 1_555
H38B C43B 1_555 1_555
H17B C19B 1_555 1_555
H18B C19B 1_555 1_555
C20B P1B 1_555 1_555
C21B C20B 1_555 1_555
H19B C21B 1_555 1_555
C22B C21B 1_555 1_555
H20B C22B 1_555 1_555
C23B C22B 1_555 1_555
H21B C23B 1_555 1_555
C24B C23B 1_555 1_555
H22B C24B 1_555 1_555
C25B C20B 1_555 1_555
H23B C25B 1_555 1_555
C26B P1B 1_555 1_555
C27B C26B 1_555 1_555
H24B C27B 1_555 1_555
C28B C27B 1_555 1_555
H25B C28B 1_555 1_555
C29B C28B 1_555 1_555
H26B C29B 1_555 1_555
C30B C29B 1_555 1_555
H27B C30B 1_555 1_555
C31B C26B 1_555 1_555
H28B C31B 1_555 1_555
C15B C16 1_555 1_555
H11B C15B 1_555 1_555
H10B C14B 1_555 1_555
C4 C5 1_555 1_555
C18 C19 1_555 1_555
C24 C25 1_555 1_555
C30 C31 1_555 1_555
C36 C37 1_555 1_555
C42 C43 1_555 1_555
N2B C15B 1_555 1_555
C19B P2B 1_555 1_555
C4B C5B 1_555 1_555
C12B C13B 1_555 1_555
C12B C16B 1_555 1_555
C36B C37B 1_555 1_555
C42B C43B 1_555 1_555
C24B C25B 1_555 1_555
C30B C31B 1_555 1_555

#END
