
#######################################################################
#
#                 Cambridge Crystallographic Data Centre
#                                CCDC 
#
#######################################################################
#
# If this CIF has been generated from an entry in the Cambridge 
# Structural Database, then it will include bibliographic, chemical, 
# crystal, experimental, refinement or atomic coordinate data resulting 
# from the CCDC's data processing and validation procedures.
#
#######################################################################

data_XAFZAG
_chemical_formula_moiety         
'C92 H82 N6 O8 P4 Pd2 4+,4(C1 F3 O3 S1 1-),2(C1 H3 N1 O2)'
_chemical_name_systematic        
'bis(\m~2~-bis(4-pyridylmethyl) pyridine-2,6-dicarboxylate)-bis(bis(diphenylphosphino)propane)-di-palladium(ii) tetrakis(trifluoromethanesulfonate) nitromethane solvate'
_symmetry_cell_setting           triclinic
_symmetry_space_group_name_H-M   'P -1'
_symmetry_Int_Tables_number      2
_space_group_name_Hall           '-P 1'
loop_
_symmetry_equiv_pos_site_id
_symmetry_equiv_pos_as_xyz
1 x,y,z
2 -x,-y,-z
_cell_length_a                   11.7834(2)
_cell_length_b                   15.3708(3)
_cell_length_c                   15.4053(3)
_cell_angle_alpha                88.4998(8)
_cell_angle_beta                 81.9321(8)
_cell_angle_gamma                70.4728(13)
_cell_volume                     2603.06
_exptl_crystal_colour            colorless
_exptl_crystal_description       prism
_cell_formula_units_Z            1
loop_
_atom_site_label
_atom_site_type_symbol
_atom_site_fract_x
_atom_site_fract_y
_atom_site_fract_z
Pd1 Pd 0.03348(3) 0.30593(2) 0.78316(2)
P1 P 0.03634(14) 0.36641(11) 0.64707(8)
P2 P -0.11867(9) 0.25206(8) 0.76088(7)
O1 O 0.3879(5) 0.5795(3) 0.8370(5)
O2 O 0.4982(4) 0.5387(4) 0.7042(5)
O3 O 0.0849(3) 0.9617(2) 0.8399(2)
O4 O 0.0407(3) 0.8433(2) 0.78589(19)
N1 N 0.1647(3) 0.3610(2) 0.8129(2)
N2 N 0.2782(3) 0.7455(3) 0.7699(3)
N3 N 0.0459(3) 0.2457(2) 0.9068(2)
C1 C 0.2840(4) 0.3152(3) 0.7978(3)
C2 C 0.3692(4) 0.3531(3) 0.8144(4)
C3 C 0.3331(5) 0.4409(3) 0.8466(5)
C4 C 0.2102(5) 0.4881(4) 0.8641(5)
C5 C 0.1288(5) 0.4465(4) 0.8476(4)
C6 C 0.4242(7) 0.4845(4) 0.8645(8)
H1 H 0.4305 0.4823 0.9280
H2 H 0.5051 0.4496 0.8325
C7 C 0.4332(6) 0.5967(5) 0.7561(7)
C8 C 0.3958(4) 0.6983(4) 0.7439(4)
C9 C 0.4809(5) 0.7388(5) 0.7114(4)
C10 C 0.4448(5) 0.8333(5) 0.7093(4)
C11 C 0.3257(5) 0.8843(4) 0.7370(3)
C12 C 0.2457(4) 0.8368(3) 0.7650(3)
C13 C 0.1161(4) 0.8891(3) 0.8008(3)
C14 C -0.0773(4) 0.8742(3) 0.8395(3)
C15 C -0.0664(4) 0.8317(3) 0.9284(3)
C16 C 0.0279(4) 0.7510(3) 0.9404(3)
C17 C -0.0343(4) 0.2861(3) 0.9773(3)
C18 C 0.1373(4) 0.1681(3) 0.9182(3)
C19 C -0.1508(4) 0.8715(3) 1.0009(3)
C20 C -0.1103(8) 0.4158(5) 0.6084(5)
C21 C -0.1846(6) 0.3518(4) 0.6093(4)
C22 C -0.2335(4) 0.3315(4) 0.7016(4)
C23 C 0.0982(7) 0.4603(5) 0.6396(4)
C24 C 0.0285(10) 0.5450(6) 0.6796(4)
H3 H -0.0517 0.5545 0.7083
C25 C 0.0793(13) 0.6168(7) 0.6767(5)
H4 H 0.0329 0.6749 0.7041
C26 C 0.1961(16) 0.6032(10) 0.6343(7)
H5 H 0.2290 0.6519 0.6316
C27 C 0.2613(10) 0.5215(9) 0.5976(7)
H6 H 0.3419 0.5124 0.5703
C28 C 0.2155(7) 0.4469(6) 0.5974(5)
H7 H 0.2635 0.3895 0.5693
C29 C 0.1353(7) 0.2786(6) 0.5672(3)
C30 C 0.1146(10) 0.2794(10) 0.4812(4)
H8 H 0.0496 0.3262 0.4599
C31 C 0.2019(14) 0.2013(13) 0.4233(6)
H9 H 0.1933 0.1981 0.3632
C32 C 0.2891(13) 0.1384(13) 0.4554(8)
H10 H 0.3400 0.0888 0.4173
C33 C 0.3126(8) 0.1381(8) 0.5375(6)
H11 H 0.3795 0.0913 0.5568
C34 C 0.2346(7) 0.2093(6) 0.5944(5)
H12 H 0.2496 0.2107 0.6532
C35 C -0.0742(4) 0.1431(3) 0.7023(3)
C36 C 0.0458(4) 0.0960(4) 0.6692(3)
C37 C 0.0768(5) 0.0135(4) 0.6216(3)
C38 C -0.0131(6) -0.0225(4) 0.6089(3)
C39 C -0.1327(6) 0.0229(4) 0.6427(4)
C40 C -0.1630(5) 0.1052(4) 0.6889(3)
C41 C -0.2030(3) 0.2346(3) 0.8635(3)
C42 C -0.1643(4) 0.1496(3) 0.9046(3)
C43 C -0.2278(4) 0.1364(3) 0.9838(3)
C44 C -0.3282(4) 0.2058(4) 1.0219(3)
C45 C -0.3658(4) 0.2905(4) 0.9836(4)
C46 C -0.3019(4) 0.3048(4) 0.9048(4)
H13 H 0.308(4) 0.254(4) 0.773(3)
H14 H 0.454(5) 0.320(4) 0.804(3)
H15 H 0.174(7) 0.552(6) 0.892(5)
H16 H 0.046(5) 0.476(4) 0.858(4)
H17 H 0.556(6) 0.703(5) 0.699(4)
H18 H 0.506(5) 0.857(4) 0.693(4)
H19 H 0.292(6) 0.953(5) 0.741(4)
H20 H -0.125(4) 0.850(3) 0.808(3)
H21 H -0.108(4) 0.938(3) 0.847(3)
H22 H 0.093(4) 0.718(3) 0.891(3)
H23 H -0.095(4) 0.345(3) 0.969(3)
H24 H 0.190(5) 0.145(4) 0.872(4)
H25 H -0.217(4) 0.928(3) 0.993(3)
H26 H -0.091(6) 0.430(5) 0.554(5)
H27 H -0.147(5) 0.469(4) 0.637(4)
H28 H -0.144(4) 0.296(4) 0.579(3)
H29 H -0.249(5) 0.377(4) 0.576(3)
H30 H -0.296(4) 0.303(3) 0.702(3)
H31 H -0.262(5) 0.387(4) 0.732(3)
H32 H 0.105(5) 0.116(3) 0.679(3)
H33 H 0.164(5) -0.020(4) 0.597(4)
H34 H 0.010(5) -0.077(4) 0.574(4)
H35 H -0.198(5) -0.001(4) 0.636(4)
H36 H -0.245(5) 0.138(4) 0.713(3)
H37 H -0.094(4) 0.100(3) 0.876(3)
H38 H -0.197(5) 0.081(4) 1.011(3)
H39 H -0.377(4) 0.200(3) 1.076(3)
H40 H -0.439(6) 0.339(4) 1.007(4)
H41 H -0.325(4) 0.359(4) 0.881(3)
C17A C 0.0343(4) 0.7139(3) 1.0227(3)
N3A N -0.0459(3) 0.7543(2) 1.0932(2)
Pd1A Pd -0.03348(3) 0.69407(2) 1.21684(2)
P1A P -0.03634(14) 0.63359(11) 1.35293(8)
C20A C 0.1103(8) 0.5842(5) 1.3916(5)
C21A C 0.1846(6) 0.6482(4) 1.3907(4)
C22A C 0.2335(4) 0.6685(4) 1.2984(4)
P2A P 0.11867(9) 0.74794(8) 1.23912(7)
N1A N -0.1647(3) 0.6390(2) 1.1871(2)
C1A C -0.2840(4) 0.6848(3) 1.2022(3)
C2A C -0.3692(4) 0.6469(3) 1.1856(4)
C3A C -0.3331(5) 0.5591(3) 1.1534(5)
C4A C -0.2102(5) 0.5119(4) 1.1359(5)
C5A C -0.1288(5) 0.5535(4) 1.1524(4)
H16A H -0.046(5) 0.524(4) 1.142(4)
H15A H -0.174(7) 0.448(6) 1.108(5)
C6A C -0.4242(7) 0.5155(4) 1.1355(8)
O1A O -0.3879(5) 0.4205(3) 1.1630(5)
C7A C -0.4332(6) 0.4033(5) 1.2439(7)
O2A O -0.4982(4) 0.4613(4) 1.2958(5)
C8A C -0.3958(4) 0.3017(4) 1.2561(4)
N2A N -0.2782(3) 0.2545(3) 1.2301(3)
C12A C -0.2457(4) 0.1632(3) 1.2350(3)
C11A C -0.3257(5) 0.1157(4) 1.2630(3)
C10A C -0.4448(5) 0.1667(5) 1.2907(4)
C9A C -0.4809(5) 0.2612(5) 1.2886(4)
H17A H -0.556(6) 0.297(5) 1.301(4)
H18A H -0.506(5) 0.143(4) 1.307(4)
H19A H -0.292(6) 0.047(5) 1.259(4)
C13A C -0.1161(4) 0.1109(3) 1.1992(3)
O3A O -0.0849(3) 0.0383(2) 1.1601(2)
O4A O -0.0407(3) 0.1567(2) 1.21411(19)
C14A C 0.0773(4) 0.1258(3) 1.1605(3)
C15A C 0.0664(4) 0.1683(3) 1.0716(3)
C16A C -0.0279(4) 0.2490(3) 1.0596(3)
C19A C 0.1508(4) 0.1285(3) 0.9991(3)
H25A H 0.217(4) 0.072(3) 1.007(3)
H22A H -0.093(4) 0.282(3) 1.109(3)
H20A H 0.125(4) 0.150(3) 1.192(3)
H21A H 0.108(4) 0.062(3) 1.153(3)
H1A H -0.4305 0.5177 1.0720
H2A H -0.5051 0.5504 1.1675
H14A H -0.454(5) 0.680(4) 1.196(3)
H13A H -0.308(4) 0.746(4) 1.227(3)
C35A C 0.0742(4) 0.8569(3) 1.2977(3)
C36A C -0.0458(4) 0.9040(4) 1.3308(3)
C37A C -0.0768(5) 0.9865(4) 1.3784(3)
C38A C 0.0131(6) 1.0225(4) 1.3911(3)
C39A C 0.1327(6) 0.9771(4) 1.3573(4)
C40A C 0.1630(5) 0.8948(4) 1.3111(3)
H36A H 0.245(5) 0.862(4) 1.287(3)
H35A H 0.198(5) 1.001(4) 1.364(4)
H34A H -0.010(5) 1.077(4) 1.426(4)
H33A H -0.164(5) 1.020(4) 1.403(4)
H32A H -0.105(5) 0.884(3) 1.321(3)
C41A C 0.2030(3) 0.7654(3) 1.1365(3)
C42A C 0.1643(4) 0.8504(3) 1.0954(3)
C43A C 0.2278(4) 0.8636(3) 1.0162(3)
C44A C 0.3282(4) 0.7942(4) 0.9781(3)
C45A C 0.3658(4) 0.7095(4) 1.0164(4)
C46A C 0.3019(4) 0.6952(4) 1.0952(4)
H41A H 0.325(4) 0.641(4) 1.119(3)
H40A H 0.439(6) 0.661(4) 0.993(4)
H39A H 0.377(4) 0.800(3) 0.924(3)
H38A H 0.197(5) 0.919(4) 0.989(3)
H37A H 0.094(4) 0.900(3) 1.124(3)
H30A H 0.296(4) 0.697(3) 1.298(3)
H31A H 0.262(5) 0.613(4) 1.268(3)
H28A H 0.144(4) 0.704(4) 1.421(3)
H29A H 0.249(5) 0.623(4) 1.424(3)
H26A H 0.091(6) 0.570(5) 1.446(5)
H27A H 0.147(5) 0.531(4) 1.363(4)
C23A C -0.0982(7) 0.5397(5) 1.3604(4)
C24A C -0.0285(10) 0.4550(6) 1.3204(4)
H3A H 0.0517 0.4455 1.2917
C25A C -0.0793(13) 0.3832(7) 1.3233(5)
H4A H -0.0329 0.3251 1.2959
C26A C -0.1961(16) 0.3968(10) 1.3657(7)
H5A H -0.2290 0.3481 1.3684
C27A C -0.2613(10) 0.4785(9) 1.4024(7)
H6A H -0.3419 0.4876 1.4297
C28A C -0.2155(7) 0.5531(6) 1.4026(5)
H7A H -0.2635 0.6105 1.4307
C29A C -0.1353(7) 0.7214(6) 1.4328(3)
C30A C -0.1146(10) 0.7206(10) 1.5188(4)
H8A H -0.0496 0.6738 1.5401
C31A C -0.2019(14) 0.7987(13) 1.5767(6)
H9A H -0.1933 0.8019 1.6368
C32A C -0.2891(13) 0.8616(13) 1.5446(8)
H10A H -0.3400 0.9112 1.5827
C33A C -0.3126(8) 0.8619(8) 1.4625(6)
H11A H -0.3795 0.9087 1.4432
C34A C -0.2346(7) 0.7907(6) 1.4056(5)
H12A H -0.2496 0.7893 1.3468
C18A C -0.1373(4) 0.8319(3) 1.0818(3)
H24A H -0.190(5) 0.855(4) 1.128(4)
H23A H 0.095(4) 0.655(3) 1.031(3)
S1 S 0.50173(14) 0.07089(10) 0.75517(11)
F1 F 0.6277(4) 0.0234(4) 0.8864(4)
F2 F 0.4466(4) 0.1169(4) 0.9207(3)
F3 F 0.4764(5) -0.0256(4) 0.8927(4)
O5 O 0.5365(4) 0.1515(3) 0.7414(4)
O6 O 0.5838(5) -0.0101(3) 0.7096(4)
O7 O 0.3732(4) 0.0877(3) 0.7504(3)
C47 C 0.5136(6) 0.0459(6) 0.8719(5)
S2 S 0.26534(11) 0.44506(9) 0.13461(13)
F4 F 0.2361(5) 0.3299(3) 0.0247(3)
F5 F 0.3438(8) 0.2668(3) 0.1182(7)
F6 F 0.1538(7) 0.3249(4) 0.1520(3)
O8 O 0.3710(4) 0.4463(4) 0.0791(6)
O9 O 0.1577(3) 0.5123(3) 0.1170(4)
O10 O 0.2735(7) 0.4367(4) 0.2262(5)
C48 C 0.2467(7) 0.3377(4) 0.1063(6)
O11 O 0.7371(5) 0.2076(4) 0.4684(4)
O12 O 0.5579(11) 0.2878(11) 0.5301(9)
N4 N 0.6421(6) 0.2087(9) 0.5021(4)
C49 C 0.6197(9) 0.1259(8) 0.5026(7)
H42 H 0.5376 0.1348 0.5327
H43 H 0.6792 0.0798 0.5333
H44 H 0.6266 0.1044 0.4421
loop_
_geom_bond_atom_site_label_1
_geom_bond_atom_site_label_2
_geom_bond_site_symmetry_1
_geom_bond_site_symmetry_2
Pd1 P1 1_555 1_555
P1 C20 1_555 1_555
P2 Pd1 1_555 1_555
O1 C6 1_555 1_555
O2 C7 1_555 1_555
O3 C13 1_555 1_555
O4 C13 1_555 1_555
N1 Pd1 1_555 1_555
N2 C8 1_555 1_555
N3 Pd1 1_555 1_555
C1 N1 1_555 1_555
C2 C1 1_555 1_555
C3 C2 1_555 1_555
C4 C3 1_555 1_555
C5 N1 1_555 1_555
C6 C3 1_555 1_555
H1 C6 1_555 1_555
H2 C6 1_555 1_555
C7 O1 1_555 1_555
C8 C7 1_555 1_555
C9 C8 1_555 1_555
C10 C9 1_555 1_555
C11 C10 1_555 1_555
C12 N2 1_555 1_555
C13 C12 1_555 1_555
C14 O4 1_555 1_555
C15 C14 1_555 1_555
C16 C15 1_555 1_555
C17 N3 1_555 1_555
C18 N3 1_555 1_555
C19 C15 1_555 1_555
C20 C21 1_555 1_555
C21 C22 1_555 1_555
C22 P2 1_555 1_555
C23 P1 1_555 1_555
C24 C23 1_555 1_555
H3 C24 1_555 1_555
C25 C24 1_555 1_555
H4 C25 1_555 1_555
C26 C25 1_555 1_555
H5 C26 1_555 1_555
C27 C26 1_555 1_555
H6 C27 1_555 1_555
C28 C23 1_555 1_555
H7 C28 1_555 1_555
C29 P1 1_555 1_555
C30 C29 1_555 1_555
H8 C30 1_555 1_555
C31 C30 1_555 1_555
H9 C31 1_555 1_555
C32 C31 1_555 1_555
H10 C32 1_555 1_555
C33 C32 1_555 1_555
H11 C33 1_555 1_555
C34 C29 1_555 1_555
H12 C34 1_555 1_555
C35 P2 1_555 1_555
C36 C35 1_555 1_555
C37 C36 1_555 1_555
C38 C37 1_555 1_555
C39 C38 1_555 1_555
C40 C35 1_555 1_555
C41 P2 1_555 1_555
C42 C41 1_555 1_555
C43 C42 1_555 1_555
C44 C43 1_555 1_555
C45 C44 1_555 1_555
C46 C41 1_555 1_555
H13 C1 1_555 1_555
H14 C2 1_555 1_555
H15 C4 1_555 1_555
H16 C5 1_555 1_555
H17 C9 1_555 1_555
H18 C10 1_555 1_555
H19 C11 1_555 1_555
H20 C14 1_555 1_555
H21 C14 1_555 1_555
H22 C16 1_555 1_555
H23 C17 1_555 1_555
H24 C18 1_555 1_555
H25 C19 1_555 1_555
H26 C20 1_555 1_555
H27 C20 1_555 1_555
H28 C21 1_555 1_555
H29 C21 1_555 1_555
H30 C22 1_555 1_555
H31 C22 1_555 1_555
H32 C36 1_555 1_555
H33 C37 1_555 1_555
H34 C38 1_555 1_555
H35 C39 1_555 1_555
H36 C40 1_555 1_555
H37 C42 1_555 1_555
H38 C43 1_555 1_555
H39 C44 1_555 1_555
H40 C45 1_555 1_555
H41 C46 1_555 1_555
S1 O5 1_555 1_555
F1 C47 1_555 1_555
F2 C47 1_555 1_555
F3 C47 1_555 1_555
O6 S1 1_555 1_555
O7 S1 1_555 1_555
C47 S1 1_555 1_555
S2 O8 1_555 1_555
F4 C48 1_555 1_555
F5 C48 1_555 1_555
F6 C48 1_555 1_555
O9 S2 1_555 1_555
O10 S2 1_555 1_555
C48 S2 1_555 1_555
O11 N4 1_555 1_555
O12 N4 1_555 1_555
N4 C49 1_555 1_555
C49 H42 1_555 1_555
H43 C49 1_555 1_555
H44 C49 1_555 1_555
C17A C16 1_555 1_555
N3A C17A 1_555 1_555
Pd1A N3A 1_555 1_555
P1A Pd1A 1_555 1_555
C20A P1A 1_555 1_555
C21A C20A 1_555 1_555
C22A C21A 1_555 1_555
P2A Pd1A 1_555 1_555
N1A Pd1A 1_555 1_555
C1A N1A 1_555 1_555
C2A C1A 1_555 1_555
C3A C2A 1_555 1_555
C4A C3A 1_555 1_555
C5A N1A 1_555 1_555
H16A C5A 1_555 1_555
H15A C4A 1_555 1_555
C6A C3A 1_555 1_555
O1A C6A 1_555 1_555
C7A O1A 1_555 1_555
O2A C7A 1_555 1_555
C8A C7A 1_555 1_555
N2A C8A 1_555 1_555
C12A N2A 1_555 1_555
C11A C12A 1_555 1_555
C10A C11A 1_555 1_555
C9A C8A 1_555 1_555
H17A C9A 1_555 1_555
H18A C10A 1_555 1_555
H19A C11A 1_555 1_555
C13A C12A 1_555 1_555
O3A C13A 1_555 1_555
O4A C13A 1_555 1_555
C14A O4A 1_555 1_555
C15A C14A 1_555 1_555
C16A C17 1_555 1_555
C19A C18 1_555 1_555
H25A C19A 1_555 1_555
H22A C16A 1_555 1_555
H20A C14A 1_555 1_555
H21A C14A 1_555 1_555
H1A C6A 1_555 1_555
H2A C6A 1_555 1_555
H14A C2A 1_555 1_555
H13A C1A 1_555 1_555
C35A P2A 1_555 1_555
C36A C35A 1_555 1_555
C37A C36A 1_555 1_555
C38A C37A 1_555 1_555
C39A C38A 1_555 1_555
C40A C35A 1_555 1_555
H36A C40A 1_555 1_555
H35A C39A 1_555 1_555
H34A C38A 1_555 1_555
H33A C37A 1_555 1_555
H32A C36A 1_555 1_555
C41A P2A 1_555 1_555
C42A C41A 1_555 1_555
C43A C42A 1_555 1_555
C44A C43A 1_555 1_555
C45A C44A 1_555 1_555
C46A C41A 1_555 1_555
H41A C46A 1_555 1_555
H40A C45A 1_555 1_555
H39A C44A 1_555 1_555
H38A C43A 1_555 1_555
H37A C42A 1_555 1_555
H30A C22A 1_555 1_555
H31A C22A 1_555 1_555
H28A C21A 1_555 1_555
H29A C21A 1_555 1_555
H26A C20A 1_555 1_555
H27A C20A 1_555 1_555
C23A P1A 1_555 1_555
C24A C23A 1_555 1_555
H3A C24A 1_555 1_555
C25A C24A 1_555 1_555
H4A C25A 1_555 1_555
C26A C25A 1_555 1_555
H5A C26A 1_555 1_555
C27A C26A 1_555 1_555
H6A C27A 1_555 1_555
C28A C23A 1_555 1_555
H7A C28A 1_555 1_555
C29A P1A 1_555 1_555
C30A C29A 1_555 1_555
H8A C30A 1_555 1_555
C31A C30A 1_555 1_555
H9A C31A 1_555 1_555
C32A C31A 1_555 1_555
H10A C32A 1_555 1_555
C33A C32A 1_555 1_555
H11A C33A 1_555 1_555
C34A C29A 1_555 1_555
H12A C34A 1_555 1_555
C18A C19 1_555 1_555
H24A C18A 1_555 1_555
H23A C17A 1_555 1_555
C4 C5 1_555 1_555
C11 C12 1_555 1_555
C27 C28 1_555 1_555
C33 C34 1_555 1_555
C39 C40 1_555 1_555
C45 C46 1_555 1_555
N3A C18A 1_555 1_555
C22A P2A 1_555 1_555
C4A C5A 1_555 1_555
C10A C9A 1_555 1_555
C15A C16A 1_555 1_555
C15A C19A 1_555 1_555
C39A C40A 1_555 1_555
C45A C46A 1_555 1_555
C27A C28A 1_555 1_555
C33A C34A 1_555 1_555

#END
