
#######################################################################
#
#                 Cambridge Crystallographic Data Centre
#                                CCDC 
#
#######################################################################
#
# If this CIF has been generated from an entry in the Cambridge 
# Structural Database, then it will include bibliographic, chemical, 
# crystal, experimental, refinement or atomic coordinate data resulting 
# from the CCDC's data processing and validation procedures.
#
#######################################################################

data_XEXLOC
_chemical_formula_moiety         'C134 H130 Co2 N6 O4,4(C4 H8 O1)'
_chemical_name_systematic        
"bis(\m~2~-2,12-(N,N'-bis(2-t-butoxo-5-ethynylsalicylidene)cyclohexane-1,2-diamino)-7-(3,5-di-t-butylphenyl)dibenzo(c,h)acridine)-di-cobalt(ii) tetrahydrofuran solvate"
_symmetry_cell_setting           orthorhombic
_symmetry_space_group_name_H-M   'P 2 2 21'
_symmetry_Int_Tables_number      17
_space_group_name_Hall           'P 2c 2'
loop_
_symmetry_equiv_pos_site_id
_symmetry_equiv_pos_as_xyz
1 x,y,z
2 -x,-y,1/2+z
3 -x,y,1/2-z
4 x,-y,-z
_cell_length_a                   25.274(4)
_cell_length_b                   16.934(2)
_cell_length_c                   20.720(3)
_cell_angle_alpha                90
_cell_angle_beta                 90
_cell_angle_gamma                90
_cell_volume                     8867.95
_exptl_crystal_colour            red
_exptl_crystal_description       plate
_chemical_melting_point          'above 400deg.C'
_cell_formula_units_Z            2
_exptl_crystal_recrystallization_method THF/hexane
loop_
_atom_site_label
_atom_site_type_symbol
_atom_site_fract_x
_atom_site_fract_y
_atom_site_fract_z
Co1 Co 1.0000 0.88224(10) 0.7500
Co2 Co 1.0000 0.57780(10) 0.7500
N1 N 0.9489(3) 0.8307(5) 0.8098(4)
N2 N 0.9580(3) 0.6474(5) 0.8061(4)
N3 N 0.5448(3) 0.7718(7) 0.8216(4)
O1 O 0.9488(3) 0.9469(4) 0.7082(4)
O2 O 0.9411(3) 0.5263(4) 0.7130(4)
C1 C 0.8985(4) 0.8509(6) 0.8079(6)
H1 H 0.8763 0.8245 0.8372
C2 C 0.8735(4) 0.9068(6) 0.7678(5)
C3 C 0.8186(4) 0.9166(7) 0.7776(6)
H2 H 0.8017 0.8832 0.8074
C4 C 0.7889(4) 0.9713(6) 0.7466(8)
C5 C 0.8146(4) 1.0174(6) 0.7029(6)
H3 H 0.7944 1.0550 0.6804
C6 C 0.8681(4) 1.0132(6) 0.6891(6)
C7 C 0.8992(4) 0.9546(6) 0.7209(5)
C8 C 0.8951(4) 1.0732(7) 0.6406(6)
C9 C 0.9197(5) 1.0245(7) 0.5861(6)
H4 H 0.9367 1.0596 0.5555
H5 H 0.8922 0.9946 0.5644
H6 H 0.9457 0.9885 0.6039
C10 C 0.9378(5) 1.1173(8) 0.6759(7)
H7 H 0.9548 1.1542 0.6466
H8 H 0.9638 1.0802 0.6921
H9 H 0.9224 1.1461 0.7117
C11 C 0.8556(5) 1.1272(8) 0.6072(9)
H10 H 0.8743 1.1624 0.5782
H11 H 0.8368 1.1579 0.6393
H12 H 0.8306 1.0956 0.5828
C12 C 0.7321(4) 0.9739(6) 0.7566(8)
C13 C 0.6864(4) 0.9743(6) 0.7688(7)
C14 C 0.6303(4) 0.9777(7) 0.7858(7)
C15 C 0.6051(5) 1.0514(8) 0.7919(8)
H13 H 0.6226 1.0984 0.7808
C16 C 0.5546(5) 1.0524(8) 0.8141(9)
H14 H 0.5383 1.1016 0.8211
C17 C 0.5255(5) 0.9832(10) 0.8272(11)
C18 C 0.5488(4) 0.9116(8) 0.8173(7)
C19 C 0.6034(4) 0.9118(8) 0.7964(6)
H15 H 0.6205 0.8632 0.7901
C20 C 0.4703(5) 0.9896(11) 0.8424(11)
H16 H 0.4532 1.0389 0.8420
C21 C 0.4429(5) 0.9219(10) 0.8575(8)
H17 H 0.4077 0.9264 0.8718
C22 C 0.4649(5) 0.8486(9) 0.8525(6)
C23 C 0.5209(4) 0.8402(8) 0.8307(6)
C24 C 0.4389(4) 0.7754(10) 0.8645(6)
C25 C 0.4643(5) 0.7060(9) 0.8539(7)
C26 C 0.5187(4) 0.7041(8) 0.8337(6)
C27 C 0.4381(5) 0.6282(9) 0.8648(7)
H18 H 0.4034 0.6265 0.8810
C28 C 0.4641(5) 0.5596(10) 0.8512(7)
H19 H 0.4461 0.5114 0.8558
C29 C 0.5174(4) 0.5589(8) 0.8305(7)
C30 C 0.5444(5) 0.6299(8) 0.8211(7)
C31 C 0.5439(5) 0.4864(9) 0.8220(9)
H20 H 0.5251 0.4392 0.8287
C32 C 0.5990(5) 0.4821(8) 0.8034(8)
H21 H 0.6159 0.4338 0.7948
C33 C 0.6262(5) 0.5563(8) 0.7988(7)
C34 C 0.6005(4) 0.6241(7) 0.8054(6)
H22 H 0.6196 0.6713 0.7997
C35 C 0.6798(5) 0.5538(7) 0.7840(7)
C36 C 0.7279(5) 0.5502(7) 0.7745(7)
C37 C 0.7840(4) 0.5434(7) 0.7610(7)
C38 C 0.8004(4) 0.4899(6) 0.7162(7)
H23 H 0.7753 0.4569 0.6962
C39 C 0.8548(5) 0.4829(7) 0.6989(7)
C40 C 0.8913(4) 0.5307(6) 0.7292(6)
C41 C 0.8732(4) 0.5887(6) 0.7746(5)
C42 C 0.8196(4) 0.5930(6) 0.7887(6)
H24 H 0.8076 0.6312 0.8181
C43 C 0.9079(4) 0.6427(6) 0.8097(5)
H25 H 0.8913 0.6781 0.8382
C44 C 0.8712(5) 0.4212(8) 0.6469(7)
C45 C 0.9124(6) 0.3599(8) 0.6762(9)
H26 H 0.9434 0.3880 0.6913
H27 H 0.9226 0.3224 0.6431
H28 H 0.8962 0.3320 0.7119
C46 C 0.8959(6) 0.4647(8) 0.5907(7)
H29 H 0.8710 0.5031 0.5740
H30 H 0.9049 0.4272 0.5570
H31 H 0.9277 0.4915 0.6051
C47 C 0.8238(6) 0.3744(9) 0.6208(10)
H32 H 0.7982 0.4106 0.6024
H33 H 0.8075 0.3450 0.6557
H34 H 0.8358 0.3381 0.5877
C48 C 0.9919(4) 0.7025(5) 0.8455(5)
H35 H 1.0242 0.7152 0.8205
C49 C 1.0075(6) 0.6547(7) 0.9041(5)
H36 H 1.0239 0.6048 0.8906
H37 H 0.9761 0.6424 0.9300
C50 C 1.0485(5) 0.7050(8) 0.9459(8)
H38 H 1.0599 0.6747 0.9838
H39 H 1.0798 0.7178 0.9200
C51 C 1.0210(5) 0.7798(7) 0.9669(6)
H40 H 1.0449 0.8110 0.9941
H41 H 0.9897 0.7664 0.9926
C52 C 1.0041(6) 0.8293(6) 0.9077(5)
H42 H 1.0352 0.8430 0.8819
H43 H 0.9873 0.8784 0.9221
C53 C 0.9646(4) 0.7813(6) 0.8661(5)
H44 H 0.9329 0.7690 0.8922
C54 C 0.3869(4) 0.7820(8) 0.8987(6)
C55 C 0.3398(4) 0.7666(6) 0.8702(5)
H45 H 0.3401 0.7534 0.8261
C56 C 0.2916(4) 0.7686(8) 0.9005(6)
C57 C 0.2928(5) 0.7801(14) 0.9689(7)
H46 H 0.2609 0.7751 0.9920
C58 C 0.3400(6) 0.7988(16) 1.0041(8)
C59 C 0.3899(6) 0.7920(15) 0.9673(8)
H47 H 0.4228 0.7941 0.9884
C60 C 0.2391(4) 0.7521(8) 0.8698(6)
C61 C 0.2012(6) 0.8226(10) 0.8882(9)
H48 H 0.1974 0.8251 0.9347
H49 H 0.1668 0.8143 0.8686
H50 H 0.2161 0.8718 0.8725
C62 C 0.2188(6) 0.6685(9) 0.8918(9)
H51 H 0.2149 0.6677 0.9383
H52 H 0.2440 0.6285 0.8787
H53 H 0.1848 0.6578 0.8718
C63 C 0.2430(5) 0.7467(8) 0.7945(6)
H54 H 0.2666 0.7040 0.7826
H55 H 0.2565 0.7961 0.7775
H56 H 0.2081 0.7368 0.7766
C64 C 0.3375(8) 0.8468(15) 1.0706(9)
C65 C 0.2898(8) 0.8145(15) 1.1031(8)
H57 H 0.2607 0.8514 1.0984
H58 H 0.2972 0.8066 1.1486
H59 H 0.2803 0.7644 1.0835
C66 C 0.3770(11) 0.788(2) 1.1043(10)
H60 H 0.3773 0.7975 1.1504
H61 H 0.4123 0.7955 1.0871
H62 H 0.3657 0.7339 1.0962
C67 C 0.3695(13) 0.9272(18) 1.0630(19)
H63 H 0.3467 0.9671 1.0442
H64 H 0.3999 0.9188 1.0352
H65 H 0.3815 0.9448 1.1051
N1B N 1.0511(3) 0.8307(5) 0.6902(4)
N2B N 1.0420(3) 0.6474(5) 0.6939(4)
N3B N 1.4552(3) 0.7718(7) 0.6784(4)
O1B O 1.0512(3) 0.9469(4) 0.7918(4)
O2B O 1.0589(3) 0.5263(4) 0.7870(4)
C1B C 1.1015(4) 0.8509(6) 0.6921(6)
H1B H 1.1237 0.8245 0.6628
C2B C 1.1265(4) 0.9068(6) 0.7322(5)
C3B C 1.1814(4) 0.9166(7) 0.7224(6)
H2B H 1.1983 0.8832 0.6926
C4B C 1.2111(4) 0.9713(6) 0.7534(8)
C5B C 1.1854(4) 1.0174(6) 0.7971(6)
H3B H 1.2056 1.0550 0.8196
C6B C 1.1319(4) 1.0132(6) 0.8109(6)
C7B C 1.1008(4) 0.9546(6) 0.7791(5)
C8B C 1.1049(4) 1.0732(7) 0.8594(6)
C9B C 1.0803(5) 1.0245(7) 0.9139(6)
H4B H 1.0633 1.0596 0.9445
H5B H 1.1078 0.9946 0.9356
H6B H 1.0543 0.9885 0.8961
C10B C 1.0622(5) 1.1173(8) 0.8241(7)
H7B H 1.0452 1.1542 0.8534
H8B H 1.0362 1.0802 0.8079
H9B H 1.0776 1.1461 0.7883
C11B C 1.1444(5) 1.1272(8) 0.8928(9)
H10B H 1.1257 1.1624 0.9218
H11B H 1.1632 1.1579 0.8607
H12B H 1.1694 1.0956 0.9172
C12B C 1.2679(4) 0.9739(6) 0.7434(8)
C13B C 1.3136(4) 0.9743(6) 0.7312(7)
C14B C 1.3697(4) 0.9777(7) 0.7142(7)
C15B C 1.3949(5) 1.0514(8) 0.7081(8)
H13B H 1.3774 1.0984 0.7192
C16B C 1.4454(5) 1.0524(8) 0.6859(9)
H14B H 1.4617 1.1016 0.6789
C17B C 1.4745(5) 0.9832(10) 0.6728(11)
C18B C 1.4512(4) 0.9116(8) 0.6827(7)
C19B C 1.3966(4) 0.9118(8) 0.7036(6)
H15B H 1.3795 0.8632 0.7099
C20B C 1.5297(5) 0.9896(11) 0.6576(11)
H16B H 1.5468 1.0389 0.6580
C21B C 1.5571(5) 0.9219(10) 0.6425(8)
H17B H 1.5923 0.9264 0.6282
C22B C 1.5351(5) 0.8486(9) 0.6475(6)
C23B C 1.4791(4) 0.8402(8) 0.6693(6)
C24B C 1.5611(4) 0.7754(10) 0.6355(6)
C25B C 1.5357(5) 0.7060(9) 0.6461(7)
C26B C 1.4813(4) 0.7041(8) 0.6663(6)
C27B C 1.5619(5) 0.6282(9) 0.6352(7)
H18B H 1.5966 0.6265 0.6190
C28B C 1.5359(5) 0.5596(10) 0.6488(7)
H19B H 1.5539 0.5114 0.6442
C29B C 1.4826(4) 0.5589(8) 0.6695(7)
C30B C 1.4556(5) 0.6299(8) 0.6789(7)
C31B C 1.4561(5) 0.4864(9) 0.6780(9)
H20B H 1.4749 0.4392 0.6713
C32B C 1.4010(5) 0.4821(8) 0.6966(8)
H21B H 1.3841 0.4338 0.7052
C33B C 1.3738(5) 0.5563(8) 0.7012(7)
C34B C 1.3995(4) 0.6241(7) 0.6946(6)
H22B H 1.3804 0.6713 0.7003
C35B C 1.3202(5) 0.5538(7) 0.7160(7)
C36B C 1.2721(5) 0.5502(7) 0.7255(7)
C37B C 1.2160(4) 0.5434(7) 0.7390(7)
C38B C 1.1996(4) 0.4899(6) 0.7838(7)
H23B H 1.2247 0.4569 0.8038
C39B C 1.1452(5) 0.4829(7) 0.8011(7)
C40B C 1.1087(4) 0.5307(6) 0.7708(6)
C41B C 1.1268(4) 0.5887(6) 0.7254(5)
C42B C 1.1804(4) 0.5930(6) 0.7113(6)
H24B H 1.1924 0.6312 0.6819
C43B C 1.0921(4) 0.6427(6) 0.6903(5)
H25B H 1.1087 0.6781 0.6618
C44B C 1.1288(5) 0.4212(8) 0.8531(7)
C45B C 1.0876(6) 0.3599(8) 0.8238(9)
H26B H 1.0566 0.3880 0.8087
H27B H 1.0774 0.3224 0.8569
H28B H 1.1038 0.3320 0.7881
C46B C 1.1041(6) 0.4647(8) 0.9093(7)
H29B H 1.1290 0.5031 0.9260
H30B H 1.0951 0.4272 0.9430
H31B H 1.0723 0.4915 0.8949
C47B C 1.1762(6) 0.3744(9) 0.8792(10)
H32B H 1.2018 0.4106 0.8976
H33B H 1.1925 0.3450 0.8443
H34B H 1.1642 0.3381 0.9123
C48B C 1.0081(4) 0.7025(5) 0.6545(5)
H35B H 0.9758 0.7152 0.6795
C49B C 0.9925(6) 0.6547(7) 0.5959(5)
H36B H 0.9761 0.6048 0.6094
H37B H 1.0239 0.6424 0.5700
C50B C 0.9515(5) 0.7050(8) 0.5541(8)
H38B H 0.9401 0.6747 0.5162
H39B H 0.9202 0.7178 0.5800
C51B C 0.9790(5) 0.7798(7) 0.5331(6)
H40B H 0.9551 0.8110 0.5059
H41B H 1.0103 0.7664 0.5074
C52B C 0.9959(6) 0.8293(6) 0.5923(5)
H42B H 0.9648 0.8430 0.6181
H43B H 1.0127 0.8784 0.5779
C53B C 1.0354(4) 0.7813(6) 0.6339(5)
H44B H 1.0671 0.7690 0.6078
C54B C 1.6131(4) 0.7820(8) 0.6013(6)
C55B C 1.6602(4) 0.7666(6) 0.6298(5)
H45B H 1.6599 0.7534 0.6739
C56B C 1.7084(4) 0.7686(8) 0.5995(6)
C57B C 1.7072(5) 0.7801(14) 0.5311(7)
H46B H 1.7391 0.7751 0.5080
C58B C 1.6600(6) 0.7988(16) 0.4959(8)
C59B C 1.6101(6) 0.7920(15) 0.5327(8)
H47B H 1.5772 0.7941 0.5116
C60B C 1.7609(4) 0.7521(8) 0.6302(6)
C61B C 1.7988(6) 0.8226(10) 0.6118(9)
H48B H 1.8026 0.8251 0.5653
H49B H 1.8332 0.8143 0.6314
H50B H 1.7839 0.8718 0.6275
C62B C 1.7812(6) 0.6685(9) 0.6082(9)
H51B H 1.7851 0.6677 0.5617
H52B H 1.7560 0.6285 0.6213
H53B H 1.8152 0.6578 0.6282
C63B C 1.7570(5) 0.7467(8) 0.7055(6)
H54B H 1.7334 0.7040 0.7174
H55B H 1.7435 0.7961 0.7225
H56B H 1.7919 0.7368 0.7234
C64B C 1.6625(8) 0.8468(15) 0.4294(9)
C65B C 1.7102(8) 0.8145(15) 0.3969(8)
H57B H 1.7393 0.8514 0.4016
H58B H 1.7028 0.8066 0.3514
H59B H 1.7197 0.7644 0.4165
C66B C 1.6230(11) 0.788(2) 0.3957(10)
H60B H 1.6227 0.7975 0.3496
H61B H 1.5877 0.7955 0.4129
H62B H 1.6343 0.7339 0.4038
C67B C 1.6305(13) 0.9272(18) 0.4370(19)
H63B H 1.6533 0.9671 0.4558
H64B H 1.6001 0.9188 0.4648
H65B H 1.6185 0.9448 0.3949
C68 C 0.7310(9) 0.7567(19) 0.8766(11)
H66 H 0.7209 0.8090 0.8605
H67 H 0.7237 0.7192 0.8417
C69 C 0.6971(12) 0.739(3) 0.9252(14)
H68 H 0.6769 0.6905 0.9183
H69 H 0.6737 0.7830 0.9372
C70 C 0.7435(16) 0.730(3) 0.9687(16)
H70 H 0.7454 0.6737 0.9808
H71 H 0.7361 0.7594 1.0082
C71 C 0.8039(11) 0.756(2) 0.9429(12)
H72 H 0.8153 0.8082 0.9589
H73 H 0.8312 0.7165 0.9505
O3 O 0.7868(6) 0.7578(9) 0.8853(6)
C72 C 0.9385(13) 0.421(2) 0.867(2)
H74 H 0.9377 0.4751 0.8833
H75 H 0.9565 0.4201 0.8247
C73 C 0.8962(17) 0.393(3) 0.864(2)
H76 H 0.8972 0.3496 0.8327
H77 H 0.8719 0.4331 0.8469
C74 C 0.8727(13) 0.360(3) 0.9303(19)
H78 H 0.8504 0.3995 0.9521
H79 H 0.8531 0.3111 0.9245
C75 C 0.9187(12) 0.349(2) 0.9606(15)
H80 H 0.9219 0.2948 0.9756
H81 H 0.9218 0.3849 0.9978
O4 O 0.9610(11) 0.368(2) 0.9105(17)
loop_
_geom_bond_atom_site_label_1
_geom_bond_atom_site_label_2
_geom_bond_site_symmetry_1
_geom_bond_site_symmetry_2
Co1 N1 1_555 1_555
Co2 N2 1_555 1_555
N1 C1 1_555 1_555
N2 C43 1_555 1_555
N3 C23 1_555 1_555
O1 Co1 1_555 1_555
O2 Co2 1_555 1_555
C1 H1 1_555 1_555
C2 C1 1_555 1_555
C3 C2 1_555 1_555
H2 C3 1_555 1_555
C4 C3 1_555 1_555
C5 C4 1_555 1_555
H3 C5 1_555 1_555
C6 C5 1_555 1_555
C7 O1 1_555 1_555
C8 C6 1_555 1_555
C9 C8 1_555 1_555
H4 C9 1_555 1_555
H5 C9 1_555 1_555
H6 C9 1_555 1_555
C10 C8 1_555 1_555
H7 C10 1_555 1_555
H8 C10 1_555 1_555
H9 C10 1_555 1_555
C11 C8 1_555 1_555
H10 C11 1_555 1_555
H11 C11 1_555 1_555
H12 C11 1_555 1_555
C12 C4 1_555 1_555
C13 C12 1_555 1_555
C14 C13 1_555 1_555
C15 C14 1_555 1_555
H13 C15 1_555 1_555
C16 C15 1_555 1_555
H14 C16 1_555 1_555
C17 C16 1_555 1_555
C18 C17 1_555 1_555
C19 C14 1_555 1_555
H15 C19 1_555 1_555
C20 C17 1_555 1_555
H16 C20 1_555 1_555
C21 C20 1_555 1_555
H17 C21 1_555 1_555
C22 C21 1_555 1_555
C23 C18 1_555 1_555
C24 C22 1_555 1_555
C25 C24 1_555 1_555
C26 N3 1_555 1_555
C27 C25 1_555 1_555
H18 C27 1_555 1_555
C28 C27 1_555 1_555
H19 C28 1_555 1_555
C29 C28 1_555 1_555
C30 C26 1_555 1_555
C31 C29 1_555 1_555
H20 C31 1_555 1_555
C32 C31 1_555 1_555
H21 C32 1_555 1_555
C33 C32 1_555 1_555
C34 C30 1_555 1_555
H22 C34 1_555 1_555
C35 C33 1_555 1_555
C36 C35 1_555 1_555
C37 C36 1_555 1_555
C38 C37 1_555 1_555
H23 C38 1_555 1_555
C39 C38 1_555 1_555
C40 O2 1_555 1_555
C41 C40 1_555 1_555
C42 C37 1_555 1_555
H24 C42 1_555 1_555
C43 C41 1_555 1_555
H25 C43 1_555 1_555
C44 C39 1_555 1_555
C45 C44 1_555 1_555
H26 C45 1_555 1_555
H27 C45 1_555 1_555
H28 C45 1_555 1_555
C46 C44 1_555 1_555
H29 C46 1_555 1_555
H30 C46 1_555 1_555
H31 C46 1_555 1_555
C47 C44 1_555 1_555
H32 C47 1_555 1_555
H33 C47 1_555 1_555
H34 C47 1_555 1_555
C48 N2 1_555 1_555
H35 C48 1_555 1_555
C49 C48 1_555 1_555
H36 C49 1_555 1_555
H37 C49 1_555 1_555
C50 C49 1_555 1_555
H38 C50 1_555 1_555
H39 C50 1_555 1_555
C51 C50 1_555 1_555
H40 C51 1_555 1_555
H41 C51 1_555 1_555
C52 C51 1_555 1_555
H42 C52 1_555 1_555
H43 C52 1_555 1_555
C53 N1 1_555 1_555
H44 C53 1_555 1_555
C54 C24 1_555 1_555
C55 C54 1_555 1_555
H45 C55 1_555 1_555
C56 C55 1_555 1_555
C57 C56 1_555 1_555
H46 C57 1_555 1_555
C58 C57 1_555 1_555
C59 C54 1_555 1_555
H47 C59 1_555 1_555
C60 C56 1_555 1_555
C61 C60 1_555 1_555
H48 C61 1_555 1_555
H49 C61 1_555 1_555
H50 C61 1_555 1_555
C62 C60 1_555 1_555
H51 C62 1_555 1_555
H52 C62 1_555 1_555
H53 C62 1_555 1_555
C63 C60 1_555 1_555
H54 C63 1_555 1_555
H55 C63 1_555 1_555
H56 C63 1_555 1_555
C64 C58 1_555 1_555
C65 C64 1_555 1_555
H57 C65 1_555 1_555
H58 C65 1_555 1_555
H59 C65 1_555 1_555
C66 C64 1_555 1_555
H60 C66 1_555 1_555
H61 C66 1_555 1_555
H62 C66 1_555 1_555
C67 C64 1_555 1_555
H63 C67 1_555 1_555
H64 C67 1_555 1_555
H65 C67 1_555 1_555
C68 H66 1_555 1_555
H67 C68 1_555 1_555
C69 C68 1_555 1_555
H68 C69 1_555 1_555
H69 C69 1_555 1_555
C70 C69 1_555 1_555
H70 C70 1_555 1_555
H71 C70 1_555 1_555
C71 C70 1_555 1_555
H72 C71 1_555 1_555
H73 C71 1_555 1_555
C72 H74 1_555 1_555
H75 C72 1_555 1_555
C73 C72 1_555 1_555
H76 C73 1_555 1_555
H77 C73 1_555 1_555
C74 C73 1_555 1_555
H78 C74 1_555 1_555
H79 C74 1_555 1_555
C75 C74 1_555 1_555
H80 C75 1_555 1_555
H81 C75 1_555 1_555
O3 C68 1_555 1_555
O4 C72 1_555 1_555
N1B Co1 1_555 1_555
N2B Co2 1_555 1_555
N3B C23B 1_555 1_555
O1B Co1 1_555 1_555
O2B Co2 1_555 1_555
C1B N1B 1_555 1_555
H1B C1B 1_555 1_555
C2B C1B 1_555 1_555
C3B C2B 1_555 1_555
H2B C3B 1_555 1_555
C4B C3B 1_555 1_555
C5B C4B 1_555 1_555
H3B C5B 1_555 1_555
C6B C5B 1_555 1_555
C7B O1B 1_555 1_555
C8B C6B 1_555 1_555
C9B C8B 1_555 1_555
H4B C9B 1_555 1_555
H5B C9B 1_555 1_555
H6B C9B 1_555 1_555
C10B C8B 1_555 1_555
H7B C10B 1_555 1_555
H8B C10B 1_555 1_555
H9B C10B 1_555 1_555
C11B C8B 1_555 1_555
H10B C11B 1_555 1_555
H11B C11B 1_555 1_555
H12B C11B 1_555 1_555
C12B C4B 1_555 1_555
C13B C12B 1_555 1_555
C14B C13B 1_555 1_555
C15B C14B 1_555 1_555
H13B C15B 1_555 1_555
C16B C15B 1_555 1_555
H14B C16B 1_555 1_555
C17B C16B 1_555 1_555
C18B C17B 1_555 1_555
C19B C14B 1_555 1_555
H15B C19B 1_555 1_555
C20B C17B 1_555 1_555
H16B C20B 1_555 1_555
C21B C20B 1_555 1_555
H17B C21B 1_555 1_555
C22B C21B 1_555 1_555
C23B C18B 1_555 1_555
C24B C22B 1_555 1_555
C25B C24B 1_555 1_555
C26B N3B 1_555 1_555
C27B C25B 1_555 1_555
H18B C27B 1_555 1_555
C28B C27B 1_555 1_555
H19B C28B 1_555 1_555
C29B C28B 1_555 1_555
C30B C26B 1_555 1_555
C31B C29B 1_555 1_555
H20B C31B 1_555 1_555
C32B C31B 1_555 1_555
H21B C32B 1_555 1_555
C33B C32B 1_555 1_555
C34B C30B 1_555 1_555
H22B C34B 1_555 1_555
C35B C33B 1_555 1_555
C36B C35B 1_555 1_555
C37B C36B 1_555 1_555
C38B C37B 1_555 1_555
H23B C38B 1_555 1_555
C39B C38B 1_555 1_555
C40B O2B 1_555 1_555
C41B C40B 1_555 1_555
C42B C37B 1_555 1_555
H24B C42B 1_555 1_555
C43B N2B 1_555 1_555
H25B C43B 1_555 1_555
C44B C39B 1_555 1_555
C45B C44B 1_555 1_555
H26B C45B 1_555 1_555
H27B C45B 1_555 1_555
H28B C45B 1_555 1_555
C46B C44B 1_555 1_555
H29B C46B 1_555 1_555
H30B C46B 1_555 1_555
H31B C46B 1_555 1_555
C47B C44B 1_555 1_555
H32B C47B 1_555 1_555
H33B C47B 1_555 1_555
H34B C47B 1_555 1_555
C48B N2B 1_555 1_555
H35B C48B 1_555 1_555
C49B C48B 1_555 1_555
H36B C49B 1_555 1_555
H37B C49B 1_555 1_555
C50B C49B 1_555 1_555
H38B C50B 1_555 1_555
H39B C50B 1_555 1_555
C51B C50B 1_555 1_555
H40B C51B 1_555 1_555
H41B C51B 1_555 1_555
C52B C51B 1_555 1_555
H42B C52B 1_555 1_555
H43B C52B 1_555 1_555
C53B N1B 1_555 1_555
H44B C53B 1_555 1_555
C54B C24B 1_555 1_555
C55B C54B 1_555 1_555
H45B C55B 1_555 1_555
C56B C55B 1_555 1_555
C57B C56B 1_555 1_555
H46B C57B 1_555 1_555
C58B C57B 1_555 1_555
C59B C54B 1_555 1_555
H47B C59B 1_555 1_555
C60B C56B 1_555 1_555
C61B C60B 1_555 1_555
H48B C61B 1_555 1_555
H49B C61B 1_555 1_555
H50B C61B 1_555 1_555
C62B C60B 1_555 1_555
H51B C62B 1_555 1_555
H52B C62B 1_555 1_555
H53B C62B 1_555 1_555
C63B C60B 1_555 1_555
H54B C63B 1_555 1_555
H55B C63B 1_555 1_555
H56B C63B 1_555 1_555
C64B C58B 1_555 1_555
C65B C64B 1_555 1_555
H57B C65B 1_555 1_555
H58B C65B 1_555 1_555
H59B C65B 1_555 1_555
C66B C64B 1_555 1_555
H60B C66B 1_555 1_555
H61B C66B 1_555 1_555
H62B C66B 1_555 1_555
C67B C64B 1_555 1_555
H63B C67B 1_555 1_555
H64B C67B 1_555 1_555
H65B C67B 1_555 1_555
C2 C7 1_555 1_555
C6 C7 1_555 1_555
C18 C19 1_555 1_555
C22 C23 1_555 1_555
C25 C26 1_555 1_555
C29 C30 1_555 1_555
C33 C34 1_555 1_555
C39 C40 1_555 1_555
C41 C42 1_555 1_555
C48 C53 1_555 1_555
C52 C53 1_555 1_555
C58 C59 1_555 1_555
C71 O3 1_555 1_555
C75 O4 1_555 1_555
C2B C7B 1_555 1_555
C6B C7B 1_555 1_555
C18B C19B 1_555 1_555
C22B C23B 1_555 1_555
C25B C26B 1_555 1_555
C29B C30B 1_555 1_555
C33B C34B 1_555 1_555
C39B C40B 1_555 1_555
C41B C42B 1_555 1_555
C41B C43B 1_555 1_555
C48B C53B 1_555 1_555
C52B C53B 1_555 1_555
C58B C59B 1_555 1_555

#END
