
#######################################################################
#
#                 Cambridge Crystallographic Data Centre
#                                CCDC 
#
#######################################################################
#
# If this CIF has been generated from an entry in the Cambridge 
# Structural Database, then it will include bibliographic, chemical, 
# crystal, experimental, refinement or atomic coordinate data resulting 
# from the CCDC's data processing and validation procedures.
#
#######################################################################

data_XUQKAX
_chemical_formula_moiety         'C144 H72 Mo6 O24,5(C4 H9 N1 O1)'
_chemical_name_systematic        
"hexakis(\m~4~-4,4'-(1,2-Phenylenediethyne-2,1-diyl)dibenzoato)-hexa-molybdenum dimethylacetamide unknown solvate"
_symmetry_cell_setting           monoclinic
_symmetry_space_group_name_H-M   'P 21/c'
_symmetry_Int_Tables_number      14
_space_group_name_Hall           '-P 2ybc'
loop_
_symmetry_equiv_pos_site_id
_symmetry_equiv_pos_as_xyz
1 x,y,z
2 -x,1/2+y,1/2-z
3 -x,-y,-z
4 x,1/2-y,1/2+z
_cell_length_a                   16.956(5)
_cell_length_b                   42.663(12)
_cell_length_c                   33.176(8)
_cell_angle_alpha                90
_cell_angle_beta                 113.312(12)
_cell_angle_gamma                90
_cell_volume                     22040.1
_exptl_crystal_colour            'dark red'
_exptl_crystal_description       needle
_cell_formula_units_Z            4
loop_
_atom_site_label
_atom_site_type_symbol
_atom_site_fract_x
_atom_site_fract_y
_atom_site_fract_z
Mo1 Mo 0.17586(6) 0.22755(2) 0.11574(3)
Mo2 Mo 0.13007(6) 0.19735(2) 0.15236(3)
Mo3 Mo 0.23110(6) 0.12247(2) 0.47539(3)
Mo4 Mo 0.17863(6) 0.12421(2) 0.40617(3)
Mo5 Mo -0.37484(6) 0.03467(2) 0.12629(3)
Mo6 Mo -0.27216(6) 0.06519(2) 0.16027(3)
O1 O 0.1788(4) 0.26564(14) 0.15790(19)
O2 O 0.1267(4) 0.23365(16) 0.19485(19)
O3 O 0.2208(4) 0.17081(15) 0.48028(18)
O4 O 0.1650(4) 0.17265(15) 0.40649(19)
C1 C 0.1541(6) 0.2596(3) 0.1896(3)
C2 C 0.1610(5) 0.28567(15) 0.22105(19)
C3 C 0.2174(4) 0.31044(18) 0.2261(2)
H1 H 0.2484 0.3119 0.2078
C4 C 0.2286(4) 0.33308(14) 0.2581(3)
H2 H 0.2671 0.3500 0.2615
C5 C 0.1833(5) 0.33095(15) 0.2849(2)
C6 C 0.1269(5) 0.30618(19) 0.2798(2)
H3 H 0.0959 0.3047 0.2982
C7 C 0.1157(4) 0.28354(15) 0.2479(2)
H4 H 0.0772 0.2666 0.2444
C8 C 0.2025(8) 0.3525(3) 0.3219(4)
C9 C 0.2158(8) 0.3701(3) 0.3500(4)
C10 C 0.2414(5) 0.39024(17) 0.3891(2)
C11 C 0.2567(5) 0.42172(19) 0.3841(2)
H5 H 0.2531 0.4293 0.3566
C12 C 0.2771(5) 0.44210(14) 0.4195(3)
H6 H 0.2875 0.4636 0.4161
C13 C 0.2823(5) 0.43100(19) 0.4599(2)
H7 H 0.2963 0.4449 0.4841
C14 C 0.2671(5) 0.3995(2) 0.46489(18)
H8 H 0.2706 0.3919 0.4925
C15 C 0.2466(5) 0.37914(15) 0.4295(3)
C16 C 0.2319(7) 0.3475(3) 0.4354(3)
C17 C 0.2210(7) 0.3196(3) 0.4404(3)
C18 C 0.2067(5) 0.28647(12) 0.4426(3)
C19 C 0.2184(4) 0.27109(17) 0.4815(2)
H9 H 0.2307 0.2828 0.5077
C20 C 0.2119(4) 0.23863(17) 0.48206(17)
H10 H 0.2199 0.2281 0.5086
C21 C 0.1938(4) 0.22154(12) 0.4438(2)
C22 C 0.1822(4) 0.23692(17) 0.40486(17)
H11 H 0.1698 0.2252 0.3787
C23 C 0.1886(5) 0.26938(17) 0.4043(2)
H12 H 0.1807 0.2799 0.3777
C24 C 0.1937(6) 0.1867(3) 0.4449(4)
O5 O 0.3049(4) 0.21696(15) 0.1574(2)
O6 O 0.2540(5) 0.18560(16) 0.19518(19)
O7 O 0.3560(4) 0.12958(16) 0.4780(2)
O8 O 0.2981(4) 0.13099(15) 0.40427(19)
C25 C 0.3156(8) 0.1988(3) 0.1893(4)
C26 C 0.4073(4) 0.19263(18) 0.2198(2)
C27 C 0.4719(5) 0.21292(15) 0.2204(2)
H13 H 0.4595 0.2290 0.1990
C28 C 0.5546(4) 0.20966(17) 0.2523(2)
H14 H 0.5987 0.2235 0.2527
C29 C 0.5727(4) 0.18610(18) 0.2837(2)
C30 C 0.5081(5) 0.16581(15) 0.2831(2)
H15 H 0.5205 0.1497 0.3045
C31 C 0.4254(4) 0.16908(17) 0.2512(2)
H16 H 0.3813 0.1552 0.2508
C32 C 0.6513(8) 0.1829(4) 0.3179(5)
C33 C 0.7258(10) 0.1848(3) 0.3463(5)
C34 C 0.8112(3) 0.18543(19) 0.3819(2)
C35 C 0.8797(5) 0.19372(18) 0.37111(17)
H17 H 0.8704 0.1977 0.3414
C36 C 0.9619(4) 0.19621(18) 0.4038(2)
H18 H 1.0087 0.2019 0.3964
C37 C 0.9755(3) 0.19042(18) 0.4473(2)
H19 H 1.0317 0.1921 0.4696
C38 C 0.9070(5) 0.18213(18) 0.45809(18)
H20 H 0.9163 0.1782 0.4878
C39 C 0.8249(4) 0.17964(18) 0.4254(2)
C40 C 0.7514(7) 0.1726(3) 0.4353(4)
C41 C 0.6915(9) 0.1677(3) 0.4436(4)
C42 C 0.6071(3) 0.15885(19) 0.4434(2)
C43 C 0.5362(4) 0.15621(19) 0.40384(18)
H21 H 0.5420 0.1600 0.3769
C44 C 0.4566(4) 0.14807(19) 0.40365(18)
H22 H 0.4082 0.1463 0.3766
C45 C 0.4480(3) 0.14257(19) 0.4430(2)
C46 C 0.5190(4) 0.14521(19) 0.48256(18)
H23 H 0.5131 0.1415 0.5095
C47 C 0.5985(4) 0.15335(19) 0.48275(18)
H24 H 0.6470 0.1552 0.5098
C48 C 0.3625(7) 0.1339(2) 0.4417(3)
O9 O 0.1718(4) 0.19108(16) 0.0715(2)
O10 O 0.1258(4) 0.15951(14) 0.1117(2)
O11 O -0.3221(4) 0.02312(16) 0.08083(19)
O12 O -0.2140(4) 0.05648(14) 0.1155(2)
C49 C 0.1450(7) 0.1639(2) 0.0784(3)
C50 C 0.1268(4) 0.13922(17) 0.0456(2)
C51 C 0.1070(5) 0.14639(15) 0.0018(3)
H25 H 0.1079 0.1676 -0.0069
C52 C 0.0860(5) 0.1226(2) -0.02928(18)
H26 H 0.0725 0.1275 -0.0592
C53 C 0.0848(5) 0.09160(18) -0.0166(2)
C54 C 0.1046(4) 0.08443(15) 0.0272(3)
H27 H 0.1038 0.0633 0.0359
C55 C 0.1256(4) 0.1082(2) 0.05833(19)
H28 H 0.1392 0.1033 0.0883
C56 C 0.0611(8) 0.0667(3) -0.0496(4)
C57 C 0.0446(7) 0.0454(3) -0.0737(3)
C58 C 0.0150(4) 0.01891(13) -0.1031(2)
C59 C 0.0532(4) 0.01236(15) -0.1323(2)
H29 H 0.0976 0.0255 -0.1333
C60 C 0.0263(4) -0.01343(16) -0.16004(19)
H30 H 0.0524 -0.0179 -0.1800
C61 C -0.0387(4) -0.03265(13) -0.15856(19)
H31 H -0.0570 -0.0503 -0.1775
C62 C -0.0768(4) -0.02610(15) -0.1293(2)
H32 H -0.1212 -0.0392 -0.1283
C63 C -0.0499(4) -0.00031(17) -0.10161(19)
C64 C -0.0888(8) 0.0063(3) -0.0709(4)
C65 C -0.1116(8) 0.0120(3) -0.0429(4)
C66 C -0.1511(5) 0.01964(17) -0.0123(2)
C67 C -0.2269(4) 0.00524(14) -0.0154(2)
H33 H -0.2556 -0.0088 -0.0389
C68 C -0.2607(4) 0.01145(15) 0.0157(2)
H34 H -0.3124 0.0016 0.0135
C69 C -0.2186(4) 0.03206(16) 0.0500(2)
C70 C -0.1429(4) 0.04646(15) 0.05310(19)
H35 H -0.1142 0.0605 0.0765
C71 C -0.1091(4) 0.04025(16) 0.0220(2)
H36 H -0.0574 0.0501 0.0241
C72 C -0.2548(7) 0.0375(2) 0.0833(3)
O13 O 0.0508(4) 0.23881(15) 0.07207(19)
O14 O 0.0016(4) 0.20692(16) 0.1100(2)
O15 O -0.4435(4) 0.07109(16) 0.0833(2)
O16 O -0.3339(4) 0.10344(14) 0.1209(2)
C73 C -0.0118(7) 0.2254(2) 0.0768(3)
C74 C -0.0971(4) 0.22995(18) 0.0441(2)
C75 C -0.1099(4) 0.24288(18) 0.0036(2)
H37 H -0.0619 0.2485 -0.0029
C76 C -0.1928(5) 0.24759(17) -0.02753(18)
H38 H -0.2015 0.2564 -0.0553
C77 C -0.2629(4) 0.23936(18) -0.0181(2)
C78 C -0.2501(4) 0.22643(18) 0.0225(2)
H39 H -0.2981 0.2208 0.0290
C79 C -0.1672(5) 0.22172(17) 0.05360(18)
H40 H -0.1585 0.2129 0.0813
C80 C -0.3471(11) 0.2427(3) -0.0529(4)
C81 C -0.4195(9) 0.2469(3) -0.0794(4)
C82 C -0.5051(4) 0.24832(19) -0.1133(2)
C83 C -0.5217(4) 0.26889(17) -0.1482(2)
H41 H -0.4774 0.2821 -0.1492
C84 C -0.6032(5) 0.27012(16) -0.18175(19)
H42 H -0.6146 0.2842 -0.2056
C85 C -0.6681(4) 0.25079(18) -0.18034(19)
H43 H -0.7238 0.2516 -0.2032
C86 C -0.6514(4) 0.23023(16) -0.1454(2)
H44 H -0.6957 0.2170 -0.1445
C87 C -0.5699(5) 0.22899(16) -0.1119(2)
C88 C -0.5512(7) 0.2075(2) -0.0755(3)
C89 C -0.5298(7) 0.1889(2) -0.0459(3)
C90 C -0.5057(5) 0.16752(15) -0.0089(2)
C91 C -0.5407(4) 0.13756(18) -0.01577(17)
H45 H -0.5862 0.1325 -0.0429
C92 C -0.5092(5) 0.11507(13) 0.0171(2)
H46 H -0.5332 0.0946 0.0124
C93 C -0.4427(5) 0.12253(15) 0.0567(2)
C94 C -0.4076(4) 0.15250(18) 0.06358(18)
H47 H -0.3621 0.1576 0.0907
C95 C -0.4391(5) 0.17499(13) 0.0308(2)
H48 H -0.4152 0.1955 0.0354
C96 C -0.4035(7) 0.0975(3) 0.0894(3)
O17 O 0.2413(4) 0.07307(16) 0.4735(2)
O18 O 0.1873(4) 0.07612(15) 0.4006(2)
O19 O -0.3115(5) -0.00383(15) 0.1654(2)
O20 O -0.2029(4) 0.02808(17) 0.2002(2)
C97 C 0.2111(6) 0.0595(3) 0.4359(4)
C98 C 0.2067(5) 0.02533(14) 0.4305(3)
C99 C 0.2188(5) 0.0072(2) 0.46730(19)
H49 H 0.2360 0.0169 0.4953
C100 C 0.2058(5) -0.02497(19) 0.4632(2)
H50 H 0.2140 -0.0373 0.4884
C101 C 0.1806(5) -0.03910(13) 0.4222(3)
C102 C 0.1685(5) -0.02101(18) 0.3854(2)
H51 H 0.1513 -0.0307 0.3574
C103 C 0.1815(5) 0.01120(18) 0.3895(2)
H52 H 0.1733 0.0236 0.3643
C104 C 0.1613(8) -0.0729(3) 0.4170(3)
C105 C 0.1367(8) -0.1003(3) 0.4108(4)
C106 C 0.1076(5) -0.13091(13) 0.4066(3)
C107 C 0.1538(4) -0.15362(18) 0.4367(2)
H53 H 0.2051 -0.1481 0.4608
C108 C 0.1248(5) -0.18444(15) 0.4316(2)
H54 H 0.1564 -0.2000 0.4522
C109 C 0.0497(5) -0.19254(13) 0.3963(2)
H55 H 0.0299 -0.2136 0.3928
C110 C 0.0035(4) -0.16984(18) 0.3662(2)
H56 H -0.0478 -0.1754 0.3421
C111 C 0.0325(5) -0.13902(15) 0.3713(2)
C112 C -0.0162(8) -0.1153(3) 0.3398(4)
C113 C -0.0553(8) -0.0958(3) 0.3136(4)
C114 C -0.1018(5) -0.07194(14) 0.2833(2)
C115 C -0.1874(5) -0.07602(13) 0.2555(2)
H57 H -0.2158 -0.0952 0.2558
C116 C -0.2317(4) -0.05209(17) 0.2271(2)
H58 H -0.2902 -0.0549 0.2081
C117 C -0.1902(5) -0.02407(14) 0.2266(2)
C118 C -0.1045(5) -0.01999(13) 0.2545(2)
H59 H -0.0762 -0.0008 0.2541
C119 C -0.0603(4) -0.04392(17) 0.2828(2)
H60 H -0.0018 -0.0411 0.3019
C120 C -0.2387(7) 0.0011(2) 0.1948(3)
O21 O 0.1102(4) 0.11727(16) 0.47734(19)
O22 O 0.0554(4) 0.11849(16) 0.40396(19)
O23 O -0.4368(4) 0.04352(17) 0.1694(2)
O24 O -0.3254(4) 0.07618(15) 0.2055(2)
C121 C 0.0482(6) 0.11429(19) 0.4402(4)
C122 C -0.0395(3) 0.10777(17) 0.4406(2)
C123 C -0.0469(4) 0.10361(17) 0.48057(18)
H61 H 0.0023 0.1056 0.5073
C124 C -0.1262(4) 0.09654(17) 0.48143(17)
H62 H -0.1313 0.0937 0.5087
C125 C -0.1982(3) 0.09364(17) 0.4424(2)
C126 C -0.1908(4) 0.09780(17) 0.40246(18)
H63 H -0.2400 0.0958 0.3758
C127 C -0.1115(4) 0.10487(17) 0.40159(17)
H64 H -0.1065 0.1077 0.3743
C128 C -0.2779(8) 0.0843(3) 0.4454(4)
C129 C -0.3440(7) 0.0779(3) 0.4494(4)
C130 C -0.4170(4) 0.0707(2) 0.4579(3)
C131 C -0.4085(4) 0.0682(2) 0.5012(2)
H65 H -0.3540 0.0714 0.5245
C132 C -0.4795(5) 0.0610(2) 0.51047(19)
H66 H -0.4737 0.0593 0.5401
C133 C -0.5591(4) 0.0563(2) 0.4764(3)
H67 H -0.6077 0.0514 0.4827
C134 C -0.5677(4) 0.0588(2) 0.4331(2)
H68 H -0.6221 0.0556 0.4098
C135 C -0.4967(5) 0.0660(2) 0.42384(19)
C136 C -0.5034(7) 0.0682(3) 0.3792(4)
C137 C -0.4980(7) 0.0672(3) 0.3455(4)
C138 C -0.4817(5) 0.07027(18) 0.3051(2)
C139 C -0.5262(4) 0.05131(17) 0.2692(2)
H69 H -0.5747 0.0397 0.2683
C140 C -0.4997(5) 0.04930(16) 0.2346(2)
H70 H -0.5302 0.0363 0.2101
C141 C -0.4287(5) 0.06626(18) 0.2359(2)
C142 C -0.3842(4) 0.08522(17) 0.2719(2)
H71 H -0.3357 0.0968 0.2728
C143 C -0.4107(5) 0.08723(16) 0.30644(19)
H72 H -0.3802 0.1002 0.3310
C144 C -0.3949(8) 0.0615(3) 0.2012(4)
O25 O 0.2334(6) 0.26926(14) 0.0870(2)
N1 N 0.2865(4) 0.31311(17) 0.12430(19)
C145 C 0.1486(5) 0.3157(3) 0.0629(3)
H73 H 0.1102 0.3016 0.0403
H74 H 0.1666 0.3329 0.0489
H75 H 0.1183 0.3242 0.0802
C146 C 0.2270(4) 0.29764(16) 0.09273(19)
C147 C 0.2739(7) 0.3458(2) 0.1327(4)
H76 H 0.2177 0.3529 0.1117
H77 H 0.3191 0.3586 0.1296
H78 H 0.2765 0.3480 0.1627
C148 C 0.3668(5) 0.2981(3) 0.1518(3)
H79 H 0.3672 0.2764 0.1419
H80 H 0.3724 0.2980 0.1824
H81 H 0.4150 0.3096 0.1498
O26 O 0.0614(4) 0.16145(17) 0.1839(2)
N2 N -0.0809(4) 0.16160(16) 0.1620(2)
C149 C -0.0167(7) 0.1224(3) 0.1317(4)
H82 H 0.0409 0.1158 0.1350
H83 H -0.0502 0.1283 0.1011
H84 H -0.0453 0.1050 0.1398
C150 C -0.0098(4) 0.15022(15) 0.1614(2)
C151 C -0.1637(4) 0.1477(3) 0.1355(4)
H85 H -0.1550 0.1295 0.1196
H86 H -0.1996 0.1632 0.1144
H87 H -0.1923 0.1409 0.1545
C152 C -0.0795(7) 0.1885(2) 0.1893(4)
H88 H -0.0200 0.1953 0.2055
H89 H -0.1049 0.1827 0.2101
H90 H -0.1125 0.2057 0.1706
O27 O 0.1282(6) 0.12834(18) 0.32778(5)
N3 N 0.0748(5) 0.17481(17) 0.29944(18)
C153 C 0.2127(6) 0.1595(3) 0.3000(5)
H91 H 0.2519 0.1416 0.3094
H92 H 0.2421 0.1784 0.3157
H93 H 0.1948 0.1627 0.2683
C154 C 0.1344(4) 0.15320(17) 0.31008(15)
C155 C 0.0898(8) 0.20583(19) 0.2856(4)
H94 H 0.1467 0.2065 0.2846
H95 H 0.0868 0.2215 0.3065
H96 H 0.0459 0.2104 0.2564
C156 C -0.0082(5) 0.1684(3) 0.3011(4)
H97 H -0.0083 0.1471 0.3122
H98 H -0.0535 0.1703 0.2716
H99 H -0.0186 0.1835 0.3208
O28 O -0.5054(3) 0.00720(18) 0.0847(2)
N4 N -0.5238(4) -0.04141(17) 0.0581(2)
C157 C -0.5675(9) -0.0297(2) 0.1177(4)
H100 H -0.5696 -0.0115 0.1353
H101 H -0.5317 -0.0461 0.1371
H102 H -0.6258 -0.0378 0.1018
C158 C -0.5297(3) -0.02008(16) 0.08518(19)
C159 C -0.5421(10) -0.07419(16) 0.0631(4)
H103 H -0.5529 -0.0768 0.0898
H104 H -0.4928 -0.0871 0.0651
H105 H -0.5930 -0.0808 0.0376
C160 C -0.4989(10) -0.0329(3) 0.0223(3)
H106 H -0.4955 -0.0101 0.0207
H107 H -0.5417 -0.0409 -0.0054
H108 H -0.4427 -0.0421 0.0275
O29 O -0.1526(4) 0.09274(17) 0.21340(18)
N5 N -0.0826(5) 0.07346(13) 0.2807(2)
C161 C 0.0003(5) 0.0893(4) 0.2391(4)
H109 H -0.0100 0.0990 0.2107
H110 H 0.0276 0.0688 0.2410
H111 H 0.0380 0.1029 0.2627
C162 C -0.0846(4) 0.08517(14) 0.24381(18)
C163 C -0.0025(6) 0.0621(3) 0.3142(3)
H112 H 0.0449 0.0664 0.3052
H113 H -0.0067 0.0395 0.3182
H114 H 0.0081 0.0729 0.3420
C164 C -0.1603(6) 0.0714(3) 0.2892(3)
H115 H -0.2092 0.0793 0.2637
H116 H -0.1534 0.0840 0.3151
H117 H -0.1707 0.0495 0.2945
loop_
_geom_bond_atom_site_label_1
_geom_bond_atom_site_label_2
_geom_bond_site_symmetry_1
_geom_bond_site_symmetry_2
Mo1 Mo2 1_555 1_555
Mo2 O2 1_555 1_555
Mo3 Mo4 1_555 1_555
Mo4 O4 1_555 1_555
Mo5 Mo6 1_555 1_555
Mo6 O12 1_555 1_555
O1 Mo1 1_555 1_555
O2 C1 1_555 1_555
O3 Mo3 1_555 1_555
O4 C24 1_555 1_555
C1 O1 1_555 1_555
C2 C1 1_555 1_555
C3 C2 1_555 1_555
H1 C3 1_555 1_555
C4 C3 1_555 1_555
H2 C4 1_555 1_555
C5 C4 1_555 1_555
C6 C5 1_555 1_555
H3 C6 1_555 1_555
C7 C2 1_555 1_555
H4 C7 1_555 1_555
C8 C5 1_555 1_555
C9 C8 1_555 1_555
C10 C9 1_555 1_555
C11 C10 1_555 1_555
H5 C11 1_555 1_555
C12 C11 1_555 1_555
H6 C12 1_555 1_555
C13 C12 1_555 1_555
H7 C13 1_555 1_555
C14 C13 1_555 1_555
H8 C14 1_555 1_555
C15 C10 1_555 1_555
C16 C15 1_555 1_555
C17 C16 1_555 1_555
C18 C17 1_555 1_555
C19 C18 1_555 1_555
H9 C19 1_555 1_555
C20 C19 1_555 1_555
H10 C20 1_555 1_555
C21 C20 1_555 1_555
C22 C21 1_555 1_555
H11 C22 1_555 1_555
C23 C18 1_555 1_555
H12 C23 1_555 1_555
C24 O3 1_555 1_555
O5 Mo1 1_555 1_555
O6 Mo2 1_555 1_555
O7 Mo3 1_555 1_555
O8 Mo4 1_555 1_555
C25 O5 1_555 1_555
C26 C25 1_555 1_555
C27 C26 1_555 1_555
H13 C27 1_555 1_555
C28 C27 1_555 1_555
H14 C28 1_555 1_555
C29 C28 1_555 1_555
C30 C29 1_555 1_555
H15 C30 1_555 1_555
C31 C26 1_555 1_555
H16 C31 1_555 1_555
C32 C29 1_555 1_555
C33 C32 1_555 1_555
C34 C33 1_555 1_555
C35 C34 1_555 1_555
H17 C35 1_555 1_555
C36 C35 1_555 1_555
H18 C36 1_555 1_555
C37 C36 1_555 1_555
H19 C37 1_555 1_555
C38 C37 1_555 1_555
H20 C38 1_555 1_555
C39 C34 1_555 1_555
C40 C39 1_555 1_555
C41 C40 1_555 1_555
C42 C41 1_555 1_555
C43 C42 1_555 1_555
H21 C43 1_555 1_555
C44 C43 1_555 1_555
H22 C44 1_555 1_555
C45 C44 1_555 1_555
C46 C45 1_555 1_555
H23 C46 1_555 1_555
C47 C42 1_555 1_555
H24 C47 1_555 1_555
C48 O7 1_555 1_555
O9 Mo1 1_555 1_555
O10 Mo2 1_555 1_555
O11 Mo5 1_555 1_555
O12 C72 1_555 1_555
C49 O9 1_555 1_555
C50 C49 1_555 1_555
C51 C50 1_555 1_555
H25 C51 1_555 1_555
C52 C51 1_555 1_555
H26 C52 1_555 1_555
C53 C52 1_555 1_555
C54 C53 1_555 1_555
H27 C54 1_555 1_555
C55 C50 1_555 1_555
H28 C55 1_555 1_555
C56 C53 1_555 1_555
C57 C56 1_555 1_555
C58 C57 1_555 1_555
C59 C58 1_555 1_555
H29 C59 1_555 1_555
C60 C59 1_555 1_555
H30 C60 1_555 1_555
C61 C60 1_555 1_555
H31 C61 1_555 1_555
C62 C61 1_555 1_555
H32 C62 1_555 1_555
C63 C58 1_555 1_555
C64 C63 1_555 1_555
C65 C64 1_555 1_555
C66 C65 1_555 1_555
C67 C66 1_555 1_555
H33 C67 1_555 1_555
C68 C67 1_555 1_555
H34 C68 1_555 1_555
C69 C68 1_555 1_555
C70 C69 1_555 1_555
H35 C70 1_555 1_555
C71 C66 1_555 1_555
H36 C71 1_555 1_555
C72 O11 1_555 1_555
O13 Mo1 1_555 1_555
O14 Mo2 1_555 1_555
O15 Mo5 1_555 1_555
O16 Mo6 1_555 1_555
C73 O13 1_555 1_555
C74 C73 1_555 1_555
C75 C74 1_555 1_555
H37 C75 1_555 1_555
C76 C75 1_555 1_555
H38 C76 1_555 1_555
C77 C76 1_555 1_555
C78 C77 1_555 1_555
H39 C78 1_555 1_555
C79 C74 1_555 1_555
H40 C79 1_555 1_555
C80 C77 1_555 1_555
C81 C80 1_555 1_555
C82 C81 1_555 1_555
C83 C82 1_555 1_555
H41 C83 1_555 1_555
C84 C83 1_555 1_555
H42 C84 1_555 1_555
C85 C84 1_555 1_555
H43 C85 1_555 1_555
C86 C85 1_555 1_555
H44 C86 1_555 1_555
C87 C82 1_555 1_555
C88 C87 1_555 1_555
C89 C88 1_555 1_555
C90 C89 1_555 1_555
C91 C90 1_555 1_555
H45 C91 1_555 1_555
C92 C91 1_555 1_555
H46 C92 1_555 1_555
C93 C92 1_555 1_555
C94 C93 1_555 1_555
H47 C94 1_555 1_555
C95 C90 1_555 1_555
H48 C95 1_555 1_555
C96 O15 1_555 1_555
O17 Mo3 1_555 1_555
O18 Mo4 1_555 1_555
O19 Mo5 1_555 1_555
O20 Mo6 1_555 1_555
C97 O17 1_555 1_555
C98 C97 1_555 1_555
C99 C98 1_555 1_555
H49 C99 1_555 1_555
C100 C99 1_555 1_555
H50 C100 1_555 1_555
C101 C100 1_555 1_555
C102 C101 1_555 1_555
H51 C102 1_555 1_555
C103 C98 1_555 1_555
H52 C103 1_555 1_555
C104 C101 1_555 1_555
C105 C104 1_555 1_555
C106 C105 1_555 1_555
C107 C106 1_555 1_555
H53 C107 1_555 1_555
C108 C107 1_555 1_555
H54 C108 1_555 1_555
C109 C108 1_555 1_555
H55 C109 1_555 1_555
C110 C109 1_555 1_555
H56 C110 1_555 1_555
C111 C106 1_555 1_555
C112 C111 1_555 1_555
C113 C112 1_555 1_555
C114 C113 1_555 1_555
C115 C114 1_555 1_555
H57 C115 1_555 1_555
C116 C115 1_555 1_555
H58 C116 1_555 1_555
C117 C116 1_555 1_555
C118 C117 1_555 1_555
H59 C118 1_555 1_555
C119 C114 1_555 1_555
H60 C119 1_555 1_555
C120 O19 1_555 1_555
O21 Mo3 1_555 1_555
O22 Mo4 1_555 1_555
O23 Mo5 1_555 1_555
O24 Mo6 1_555 1_555
C121 O21 1_555 1_555
C122 C121 1_555 1_555
C123 C122 1_555 1_555
H61 C123 1_555 1_555
C124 C123 1_555 1_555
H62 C124 1_555 1_555
C125 C124 1_555 1_555
C126 C125 1_555 1_555
H63 C126 1_555 1_555
C127 C122 1_555 1_555
H64 C127 1_555 1_555
C128 C125 1_555 1_555
C129 C128 1_555 1_555
C130 C129 1_555 1_555
C131 C130 1_555 1_555
H65 C131 1_555 1_555
C132 C131 1_555 1_555
H66 C132 1_555 1_555
C133 C132 1_555 1_555
H67 C133 1_555 1_555
C134 C133 1_555 1_555
H68 C134 1_555 1_555
C135 C130 1_555 1_555
C136 C135 1_555 1_555
C137 C136 1_555 1_555
C138 C137 1_555 1_555
C139 C138 1_555 1_555
H69 C139 1_555 1_555
C140 C139 1_555 1_555
H70 C140 1_555 1_555
C141 C140 1_555 1_555
C142 C141 1_555 1_555
H71 C142 1_555 1_555
C143 C138 1_555 1_555
H72 C143 1_555 1_555
C144 O23 1_555 1_555
O25 C146 1_555 1_555
N1 C146 1_555 1_555
C145 H73 1_555 1_555
H74 C145 1_555 1_555
H75 C145 1_555 1_555
C146 C145 1_555 1_555
C147 N1 1_555 1_555
H76 C147 1_555 1_555
H77 C147 1_555 1_555
H78 C147 1_555 1_555
C148 N1 1_555 1_555
H79 C148 1_555 1_555
H80 C148 1_555 1_555
H81 C148 1_555 1_555
O26 C150 1_555 1_555
N2 C150 1_555 1_555
C149 H82 1_555 1_555
H83 C149 1_555 1_555
H84 C149 1_555 1_555
C150 C149 1_555 1_555
C151 N2 1_555 1_555
H85 C151 1_555 1_555
H86 C151 1_555 1_555
H87 C151 1_555 1_555
C152 N2 1_555 1_555
H88 C152 1_555 1_555
H89 C152 1_555 1_555
H90 C152 1_555 1_555
O27 C154 1_555 1_555
N3 C154 1_555 1_555
C153 H91 1_555 1_555
H92 C153 1_555 1_555
H93 C153 1_555 1_555
C154 C153 1_555 1_555
C155 N3 1_555 1_555
H94 C155 1_555 1_555
H95 C155 1_555 1_555
H96 C155 1_555 1_555
C156 N3 1_555 1_555
H97 C156 1_555 1_555
H98 C156 1_555 1_555
H99 C156 1_555 1_555
O28 C158 1_555 1_555
N4 C158 1_555 1_555
C157 H100 1_555 1_555
H101 C157 1_555 1_555
H102 C157 1_555 1_555
C158 C157 1_555 1_555
C159 N4 1_555 1_555
H103 C159 1_555 1_555
H104 C159 1_555 1_555
H105 C159 1_555 1_555
C160 N4 1_555 1_555
H106 C160 1_555 1_555
H107 C160 1_555 1_555
H108 C160 1_555 1_555
O29 C162 1_555 1_555
N5 C162 1_555 1_555
C161 H109 1_555 1_555
H110 C161 1_555 1_555
H111 C161 1_555 1_555
C162 C161 1_555 1_555
C163 N5 1_555 1_555
H112 C163 1_555 1_555
H113 C163 1_555 1_555
H114 C163 1_555 1_555
C164 N5 1_555 1_555
H115 C164 1_555 1_555
H116 C164 1_555 1_555
H117 C164 1_555 1_555
C6 C7 1_555 1_555
C14 C15 1_555 1_555
C21 C24 1_555 1_555
C22 C23 1_555 1_555
O6 C25 1_555 1_555
O8 C48 1_555 1_555
C30 C31 1_555 1_555
C38 C39 1_555 1_555
C45 C48 1_555 1_555
C46 C47 1_555 1_555
O10 C49 1_555 1_555
C54 C55 1_555 1_555
C62 C63 1_555 1_555
C69 C72 1_555 1_555
C70 C71 1_555 1_555
O14 C73 1_555 1_555
O16 C96 1_555 1_555
C78 C79 1_555 1_555
C86 C87 1_555 1_555
C93 C96 1_555 1_555
C94 C95 1_555 1_555
O18 C97 1_555 1_555
O20 C120 1_555 1_555
C102 C103 1_555 1_555
C110 C111 1_555 1_555
C117 C120 1_555 1_555
C118 C119 1_555 1_555
O22 C121 1_555 1_555
O24 C144 1_555 1_555
C126 C127 1_555 1_555
C134 C135 1_555 1_555
C141 C144 1_555 1_555
C142 C143 1_555 1_555

#END
