
#######################################################################
#
#                 Cambridge Crystallographic Data Centre
#                                CCDC 
#
#######################################################################
#
# If this CIF has been generated from an entry in the Cambridge 
# Structural Database, then it will include bibliographic, chemical, 
# crystal, experimental, refinement or atomic coordinate data resulting 
# from the CCDC's data processing and validation procedures.
#
#######################################################################

data_YEVBIN
_chemical_formula_moiety         'C80 H84 Fe2 N16 Pd2 4+,4(B1 F4 1-)'
_chemical_name_systematic        
"bis(\m-1,1'-bis([6-(1-hexyl-1H-1,2,3-triazol-4-yl)pyridin-3-yl]ethynyl)ferrocene)-di-palladium tetrakis(tetrafluoroborate)"
_symmetry_cell_setting           monoclinic
_symmetry_space_group_name_H-M   'P 21/n'
_symmetry_Int_Tables_number      14
_space_group_name_Hall           '-P 2yn'
loop_
_symmetry_equiv_pos_site_id
_symmetry_equiv_pos_as_xyz
1 x,y,z
2 1/2-x,1/2+y,1/2-z
3 -x,-y,-z
4 1/2+x,1/2-y,1/2+z
_cell_length_a                   17.6224(8)
_cell_length_b                   8.8350(4)
_cell_length_c                   26.1898(11)
_cell_angle_alpha                90
_cell_angle_beta                 106.438(5)
_cell_angle_gamma                90
_cell_volume                     3910.93
_exptl_crystal_colour            purple
_cell_formula_units_Z            2
loop_
_atom_site_label
_atom_site_type_symbol
_atom_site_fract_x
_atom_site_fract_y
_atom_site_fract_z
Pd1 Pd 0.98931(2) 0.36520(3) 0.04967(2)
Fe1 Fe 1.16847(3) -0.19086(6) -0.20324(2)
C1 C 1.0140(2) 0.1469(4) -0.03566(14)
H1 H 1.0643 0.1251 -0.0116
N1 N 0.88077(17) 0.4416(3) 0.01355(12)
N2 N 0.96609(17) 0.2467(3) -0.02144(11)
N3 N 1.09859(16) 0.2918(3) 0.08852(12)
N4 N 1.14755(17) 0.1888(3) 0.07873(13)
C2 C 1.1764(2) -0.3064(4) -0.13427(15)
H2 H 1.2146 -0.2890 -0.1010
N5 N 1.00961(17) 0.4880(3) 0.11856(12)
N6 N 0.83160(18) 0.5333(4) 0.02794(13)
N7 N 1.20707(18) 0.1829(3) 0.12330(12)
C3 C 1.0384(2) -0.0340(4) -0.10268(14)
N8 N 0.76674(17) 0.5352(4) -0.01291(12)
C4 C 1.1278(2) 0.3499(4) 0.13839(14)
C5 C 1.0630(2) -0.2907(4) -0.20533(15)
H3 H 1.0124 -0.2621 -0.2275
C6 C 0.8474(2) 0.3857(4) -0.03583(14)
C7 C 0.7879(3) 1.1444(4) 0.26612(17)
H4 H 0.7866 1.2116 0.2942
C8 C 0.8944(2) 0.2789(4) -0.05616(14)
C9 C 1.1839(2) -0.4073(4) -0.17382(17)
H5 H 1.2279 -0.4717 -0.1715
C10 C 1.0514(2) 0.6425(4) 0.21467(15)
H6 H 1.0665 0.6975 0.2472
C11 C 1.0801(2) 0.4616(4) 0.15538(14)
C12 C 0.8282(2) 0.9635(4) 0.21618(15)
C13 C 0.6979(2) 0.6255(5) -0.00926(16)
H7 H 0.6526 0.6048 -0.0408
H8 H 0.7109 0.7345 -0.0095
C14 C 1.0681(2) -0.1253(4) -0.12545(15)
C15 C 0.7519(2) 1.0174(4) 0.18581(16)
H9 H 0.7230 0.9853 0.1511
C16 C 0.8506(2) 1.0434(4) 0.26594(15)
H10 H 0.8984 1.0311 0.2936
C17 C 1.1006(2) -0.2340(4) -0.15305(14)
C18 C 1.1026(2) 0.5380(4) 0.20320(14)
H11 H 1.1526 0.5191 0.2280
C19 C 0.7276(2) 1.1281(4) 0.21739(18)
H12 H 0.6790 1.1821 0.2075
C20 C 1.1151(2) -0.3978(4) -0.21792(16)
H13 H 1.1056 -0.4533 -0.2502
C21 C 0.8690(2) 0.2148(4) -0.10611(14)
H14 H 0.8191 0.2412 -0.1298
C22 C 0.9175(2) 0.1118(4) -0.12091(15)
H15 H 0.9011 0.0660 -0.1551
C23 C 0.9911(2) 0.0742(4) -0.08562(14)
C24 C 1.1984(2) 0.2789(4) 0.16120(15)
H16 H 1.2332 0.2940 0.1958
C25 C 1.4183(2) 0.0338(5) 0.14752(16)
H17 H 1.4231 -0.0142 0.1825
H18 H 1.4033 -0.0460 0.1200
C26 C 0.6744(2) 0.5892(5) 0.04104(16)
H19 H 0.7152 0.6277 0.0726
H20 H 0.6703 0.4783 0.0448
C27 C 0.7730(2) 0.4473(4) -0.05347(14)
H21 H 0.7347 0.4315 -0.0868
C28 C 0.5944(3) 0.6639(5) 0.03761(17)
H22 H 0.5990 0.7746 0.0336
H23 H 0.5542 0.6257 0.0056
C29 C 0.5667(3) 0.6320(6) 0.08680(19)
H24 H 0.6022 0.6847 0.1178
H25 H 0.5707 0.5220 0.0943
C30 C 1.3519(2) 0.1523(5) 0.13691(16)
H26 H 1.3614 0.2231 0.1674
H27 H 1.3512 0.2113 0.1047
C31 C 0.4531(3) 0.6453(6) 0.1282(2)
H28 H 0.4546 0.5354 0.1335
H29 H 0.3988 0.6817 0.1221
H30 H 0.4875 0.6944 0.1599
C32 C 1.2723(2) 0.0730(4) 0.12907(15)
H31 H 1.2613 0.0086 0.0969
H32 H 1.2751 0.0066 0.1600
C33 C 1.4987(3) 0.0983(6) 0.14754(19)
H33 H 1.5388 0.0167 0.1570
H34 H 1.5140 0.1776 0.1752
C34 C 0.4819(3) 0.6830(6) 0.08027(19)
H35 H 0.4784 0.7938 0.0744
H36 H 0.4466 0.6338 0.0483
C35 C 1.4993(3) 0.1660(7) 0.0939(2)
H37 H 1.4657 0.1025 0.0652
H38 H 1.4751 0.2679 0.0907
C36 C 1.5795(3) 0.1795(8) 0.0853(3)
H39 H 1.6138 0.2407 0.1138
H40 H 1.5747 0.2281 0.0509
H41 H 1.6025 0.0784 0.0855
C37 C 0.8775(2) 0.8558(4) 0.20053(15)
C38 C 0.9593(2) 0.5870(4) 0.13006(14)
H42 H 0.9095 0.6037 0.1047
C39 C 0.9220(2) 0.7688(4) 0.18945(14)
C40 C 0.9777(2) 0.6667(4) 0.17829(14)
Pd1B Pd 1.01069(2) 0.63480(3) -0.04967(2)
Fe1B Fe 0.83153(3) 1.19086(6) 0.20324(2)
C1B C 0.9860(2) 0.8531(4) 0.03566(14)
H1B H 0.9357 0.8749 0.0116
N1B N 1.11923(17) 0.5584(3) -0.01355(12)
N2B N 1.03391(17) 0.7533(3) 0.02144(11)
N3B N 0.90141(16) 0.7082(3) -0.08852(12)
N4B N 0.85245(17) 0.8112(3) -0.07873(13)
C2B C 0.8236(2) 1.3064(4) 0.13427(15)
H2B H 0.7854 1.2890 0.1010
N5B N 0.99039(17) 0.5120(3) -0.11856(12)
N6B N 1.16840(18) 0.4667(4) -0.02794(13)
N7B N 0.79293(18) 0.8171(3) -0.12330(12)
C3B C 0.9616(2) 1.0340(4) 0.10268(14)
N8B N 1.23326(17) 0.4648(4) 0.01291(12)
C4B C 0.8722(2) 0.6501(4) -0.13839(14)
C5B C 0.9370(2) 1.2907(4) 0.20533(15)
H3B H 0.9876 1.2621 0.2275
C6B C 1.1526(2) 0.6143(4) 0.03583(14)
C7B C 1.2121(3) -0.1444(4) -0.26612(17)
H4B H 1.2134 -0.2116 -0.2942
C8B C 1.1056(2) 0.7211(4) 0.05616(14)
C9B C 0.8161(2) 1.4073(4) 0.17382(17)
H5B H 0.7721 1.4717 0.1715
C10B C 0.9486(2) 0.3575(4) -0.21467(15)
H6B H 0.9335 0.3025 -0.2472
C11B C 0.9199(2) 0.5384(4) -0.15538(14)
C12B C 1.1718(2) 0.0365(4) -0.21618(15)
C13B C 1.3021(2) 0.3745(5) 0.00926(16)
H7B H 1.3474 0.3952 0.0408
H8B H 1.2891 0.2655 0.0095
C14B C 0.9319(2) 1.1253(4) 0.12545(15)
C15B C 1.2481(2) -0.0174(4) -0.18581(16)
H9B H 1.2770 0.0147 -0.1511
C16B C 1.1494(2) -0.0434(4) -0.26594(15)
H10B H 1.1016 -0.0311 -0.2936
C17B C 0.8994(2) 1.2340(4) 0.15305(14)
C18B C 0.8974(2) 0.4620(4) -0.20320(14)
H11B H 0.8474 0.4809 -0.2280
C19B C 1.2724(2) -0.1281(4) -0.21739(18)
H12B H 1.3210 -0.1821 -0.2075
C20B C 0.8849(2) 1.3978(4) 0.21792(16)
H13B H 0.8944 1.4533 0.2502
C21B C 1.1310(2) 0.7852(4) 0.10611(14)
H14B H 1.1809 0.7588 0.1298
C22B C 1.0825(2) 0.8882(4) 0.12091(15)
H15B H 1.0989 0.9340 0.1551
C23B C 1.0089(2) 0.9258(4) 0.08562(14)
C24B C 0.8016(2) 0.7211(4) -0.16120(15)
H16B H 0.7668 0.7060 -0.1958
C25B C 0.5817(2) 0.9662(5) -0.14752(16)
H17B H 0.5769 1.0142 -0.1825
H18B H 0.5967 1.0460 -0.1200
C26B C 1.3256(2) 0.4108(5) -0.04104(16)
H19B H 1.2848 0.3723 -0.0726
H20B H 1.3297 0.5217 -0.0448
C27B C 1.2270(2) 0.5527(4) 0.05347(14)
H21B H 1.2653 0.5685 0.0868
C28B C 1.4056(3) 0.3361(5) -0.03761(17)
H22B H 1.4010 0.2254 -0.0336
H23B H 1.4458 0.3743 -0.0056
C29B C 1.4333(3) 0.3680(6) -0.08680(19)
H24B H 1.3978 0.3153 -0.1178
H25B H 1.4293 0.4780 -0.0943
C30B C 0.6481(2) 0.8477(5) -0.13691(16)
H26B H 0.6386 0.7769 -0.1674
H27B H 0.6488 0.7887 -0.1047
C31B C 1.5469(3) 0.3547(6) -0.1282(2)
H28B H 1.5454 0.4646 -0.1335
H29B H 1.6012 0.3183 -0.1221
H30B H 1.5125 0.3056 -0.1599
C32B C 0.7277(2) 0.9270(4) -0.12907(15)
H31B H 0.7387 0.9914 -0.0969
H32B H 0.7249 0.9934 -0.1600
C33B C 0.5013(3) 0.9017(6) -0.14754(19)
H33B H 0.4612 0.9833 -0.1570
H34B H 0.4860 0.8224 -0.1752
C34B C 1.5181(3) 0.3170(6) -0.08027(19)
H35B H 1.5216 0.2062 -0.0744
H36B H 1.5534 0.3662 -0.0483
C35B C 0.5007(3) 0.8340(7) -0.0939(2)
H37B H 0.5343 0.8975 -0.0652
H38B H 0.5249 0.7321 -0.0907
C36B C 0.4205(3) 0.8205(8) -0.0853(3)
H39B H 0.3862 0.7593 -0.1138
H40B H 0.4253 0.7719 -0.0509
H41B H 0.3975 0.9216 -0.0855
C37B C 1.1225(2) 0.1442(4) -0.20053(15)
C38B C 1.0407(2) 0.4130(4) -0.13006(14)
H42B H 1.0905 0.3963 -0.1047
C39B C 1.0780(2) 0.2312(4) -0.18945(14)
C40B C 1.0223(2) 0.3333(4) -0.17829(14)
F1 F 0.71964(18) 0.2196(3) 0.01605(11)
F2 F 0.67601(16) -0.0031(3) -0.02511(11)
F3 F 0.80649(16) 0.0591(4) -0.00479(11)
F4 F 0.74960(18) -0.0047(3) 0.06031(11)
B1 B 0.7378(3) 0.0672(6) 0.01213(19)
F5 F 1.20745(15) 0.0158(3) 0.23938(10)
B2 B 1.1655(3) 0.0746(6) 0.27329(18)
F6 F 1.21684(18) 0.0862(4) 0.32417(11)
F7 F 1.1334(2) 0.2116(4) 0.25607(13)
F8 F 1.1064(2) -0.0278(4) 0.27450(16)
loop_
_geom_bond_atom_site_label_1
_geom_bond_atom_site_label_2
_geom_bond_site_symmetry_1
_geom_bond_site_symmetry_2
Pd1 N1 1_555 1_555
Fe1 C2 1_555 1_555
C1 H1 1_555 1_555
N1 N6 1_555 1_555
N2 Pd1 1_555 1_555
N3 Pd1 1_555 1_555
N4 N3 1_555 1_555
C2 H2 1_555 1_555
N5 Pd1 1_555 1_555
N6 N8 1_555 1_555
N7 N4 1_555 1_555
C3 C14 1_555 1_555
N8 C13 1_555 1_555
C4 N3 1_555 1_555
C5 Fe1 1_555 1_555
H3 C5 1_555 1_555
C6 N1 1_555 1_555
C7 H4 1_555 1_555
C8 N2 1_555 1_555
C9 Fe1 1_555 1_555
H5 C9 1_555 1_555
C10 H6 1_555 1_555
C11 N5 1_555 1_555
C12 C15 1_555 1_555
C13 H7 1_555 1_555
H8 C13 1_555 1_555
C14 C17 1_555 1_555
C15 H9 1_555 1_555
C16 C7 1_555 1_555
H10 C16 1_555 1_555
C17 Fe1 1_555 1_555
C18 C10 1_555 1_555
H11 C18 1_555 1_555
C19 C7 1_555 1_555
H12 C19 1_555 1_555
C20 Fe1 1_555 1_555
H13 C20 1_555 1_555
C21 C8 1_555 1_555
H14 C21 1_555 1_555
C22 C21 1_555 1_555
H15 C22 1_555 1_555
C23 C1 1_555 1_555
C24 N7 1_555 1_555
H16 C24 1_555 1_555
C25 H17 1_555 1_555
H18 C25 1_555 1_555
C26 C13 1_555 1_555
H19 C26 1_555 1_555
H20 C26 1_555 1_555
C27 N8 1_555 1_555
H21 C27 1_555 1_555
C28 C26 1_555 1_555
H22 C28 1_555 1_555
H23 C28 1_555 1_555
C29 C28 1_555 1_555
H24 C29 1_555 1_555
H25 C29 1_555 1_555
C30 C25 1_555 1_555
H26 C30 1_555 1_555
H27 C30 1_555 1_555
C31 H28 1_555 1_555
H29 C31 1_555 1_555
H30 C31 1_555 1_555
C32 N7 1_555 1_555
H31 C32 1_555 1_555
H32 C32 1_555 1_555
C33 C25 1_555 1_555
H33 C33 1_555 1_555
H34 C33 1_555 1_555
C34 C29 1_555 1_555
H35 C34 1_555 1_555
H36 C34 1_555 1_555
C35 C33 1_555 1_555
H37 C35 1_555 1_555
H38 C35 1_555 1_555
C36 C35 1_555 1_555
H39 C36 1_555 1_555
H40 C36 1_555 1_555
H41 C36 1_555 1_555
C37 C12 1_555 1_555
C38 N5 1_555 1_555
H42 C38 1_555 1_555
C39 C37 1_555 1_555
C40 C10 1_555 1_555
F1 B1 1_555 1_555
F2 B1 1_555 1_555
F3 B1 1_555 1_555
F4 B1 1_555 1_555
F5 B2 1_555 1_555
B2 F6 1_555 1_555
F7 B2 1_555 1_555
F8 B2 1_555 1_555
Pd1B N1B 1_555 1_555
Fe1B C7 1_555 1_555
C1B H1B 1_555 1_555
N1B N6B 1_555 1_555
N2B Pd1B 1_555 1_555
N3B Pd1B 1_555 1_555
N4B N3B 1_555 1_555
C2B Fe1B 1_555 1_555
H2B C2B 1_555 1_555
N5B Pd1B 1_555 1_555
N6B N8B 1_555 1_555
N7B N4B 1_555 1_555
C3B C14B 1_555 1_555
N8B C13B 1_555 1_555
C4B N3B 1_555 1_555
C5B Fe1B 1_555 1_555
H3B C5B 1_555 1_555
C6B N1B 1_555 1_555
C7B Fe1 1_555 1_555
H4B C7B 1_555 1_555
C8B N2B 1_555 1_555
C9B Fe1B 1_555 1_555
H5B C9B 1_555 1_555
C10B H6B 1_555 1_555
C11B N5B 1_555 1_555
C12B Fe1 1_555 1_555
C13B H7B 1_555 1_555
H8B C13B 1_555 1_555
C14B C17B 1_555 1_555
C15B Fe1 1_555 1_555
H9B C15B 1_555 1_555
C16B Fe1 1_555 1_555
H10B C16B 1_555 1_555
C17B Fe1B 1_555 1_555
C18B C10B 1_555 1_555
H11B C18B 1_555 1_555
C19B Fe1 1_555 1_555
H12B C19B 1_555 1_555
C20B Fe1B 1_555 1_555
H13B C20B 1_555 1_555
C21B C8B 1_555 1_555
H14B C21B 1_555 1_555
C22B C21B 1_555 1_555
H15B C22B 1_555 1_555
C23B C1B 1_555 1_555
C24B N7B 1_555 1_555
H16B C24B 1_555 1_555
C25B H17B 1_555 1_555
H18B C25B 1_555 1_555
C26B C13B 1_555 1_555
H19B C26B 1_555 1_555
H20B C26B 1_555 1_555
C27B N8B 1_555 1_555
H21B C27B 1_555 1_555
C28B C26B 1_555 1_555
H22B C28B 1_555 1_555
H23B C28B 1_555 1_555
C29B C28B 1_555 1_555
H24B C29B 1_555 1_555
H25B C29B 1_555 1_555
C30B C25B 1_555 1_555
H26B C30B 1_555 1_555
H27B C30B 1_555 1_555
C31B H28B 1_555 1_555
H29B C31B 1_555 1_555
H30B C31B 1_555 1_555
C32B N7B 1_555 1_555
H31B C32B 1_555 1_555
H32B C32B 1_555 1_555
C33B C25B 1_555 1_555
H33B C33B 1_555 1_555
H34B C33B 1_555 1_555
C34B C29B 1_555 1_555
H35B C34B 1_555 1_555
H36B C34B 1_555 1_555
C35B C33B 1_555 1_555
H37B C35B 1_555 1_555
H38B C35B 1_555 1_555
C36B C35B 1_555 1_555
H39B C36B 1_555 1_555
H40B C36B 1_555 1_555
H41B C36B 1_555 1_555
C37B C12B 1_555 1_555
C38B N5B 1_555 1_555
H42B C38B 1_555 1_555
C39B C37B 1_555 1_555
C40B C10B 1_555 1_555
C1 N2 1_555 1_555
C2 C9 1_555 1_555
C2 C17 1_555 1_555
C3 C23 1_555 1_555
C4 C11 1_555 1_555
C4 C24 1_555 1_555
C5 C17 1_555 1_555
C5 C20 1_555 1_555
C6 C8 1_555 1_555
C6 C27 1_555 1_555
C9 C20 1_555 1_555
C11 C18 1_555 1_555
C12 C16 1_555 1_555
C12 Fe1B 1_555 1_555
C15 C19 1_555 1_555
C15 Fe1B 1_555 1_555
C16 Fe1B 1_555 1_555
C19 Fe1B 1_555 1_555
C22 C23 1_555 1_555
C30 C32 1_555 1_555
C31 C34 1_555 1_555
C38 C40 1_555 1_555
C39 C40 1_555 1_555
C1B N2B 1_555 1_555
C2B C9B 1_555 1_555
C2B C17B 1_555 1_555
C3B C23B 1_555 1_555
C4B C11B 1_555 1_555
C4B C24B 1_555 1_555
C5B C17B 1_555 1_555
C5B C20B 1_555 1_555
C6B C8B 1_555 1_555
C6B C27B 1_555 1_555
C7B C16B 1_555 1_555
C7B C19B 1_555 1_555
C9B C20B 1_555 1_555
C11B C18B 1_555 1_555
C12B C15B 1_555 1_555
C12B C16B 1_555 1_555
C15B C19B 1_555 1_555
C22B C23B 1_555 1_555
C30B C32B 1_555 1_555
C31B C34B 1_555 1_555
C38B C40B 1_555 1_555
C39B C40B 1_555 1_555

#END
