
#######################################################################
#
#                 Cambridge Crystallographic Data Centre
#                                CCDC 
#
#######################################################################
#
# If this CIF has been generated from an entry in the Cambridge 
# Structural Database, then it will include bibliographic, chemical, 
# crystal, experimental, refinement or atomic coordinate data resulting 
# from the CCDC's data processing and validation procedures.
#
#######################################################################

data_YIJBOJ
_chemical_formula_moiety         
'C80 H80 N8 O2 P4 Pd2 4+,4(C1 F3 O3 S1 1-),1.25(C3 H8 O1)'
_chemical_name_systematic        
"bis((\m~2~-N,N'-bis(4-Pyridylmethyl)urea)-(1,3-bis(diphenylphosphino)propane)-palladium(ii)) tetrakis(trifluoromethanesulfonate) isopropanol solvate"
_symmetry_cell_setting           orthorhombic
_symmetry_space_group_name_H-M   'P 21 21 21'
_symmetry_Int_Tables_number      19
_space_group_name_Hall           'P 2ac 2ab'
loop_
_symmetry_equiv_pos_site_id
_symmetry_equiv_pos_as_xyz
1 x,y,z
2 1/2-x,-y,1/2+z
3 -x,1/2+y,1/2-z
4 1/2+x,1/2-y,-z
_cell_length_a                   18.6063(11)
_cell_length_b                   21.5364(13)
_cell_length_c                   27.1103(16)
_cell_angle_alpha                90
_cell_angle_beta                 90
_cell_angle_gamma                90
_cell_volume                     10863.4
_exptl_crystal_colour            yellow
_exptl_crystal_description       needle
_cell_formula_units_Z            4
_chemical_properties_physical    'air- and moisture-sensitive'
loop_
_atom_site_label
_atom_site_type_symbol
_atom_site_fract_x
_atom_site_fract_y
_atom_site_fract_z
Pd1 Pd 0.50052(2) 0.165924(16) 0.204547(14)
P1 P 0.54896(7) 0.16053(6) 0.12778(5)
N1 N 0.4534(3) 0.25267(19) 0.18876(17)
C1 C 0.3852(3) 0.2555(2) 0.1728(2)
H1 H 0.3598 0.2178 0.1673
O1 O 0.2084(3) 0.4217(2) 0.20254(19)
Pd2 Pd -0.02246(2) 0.157089(16) 0.215207(14)
C2 C 0.3505(3) 0.3111(2) 0.1641(2)
H2 H 0.3025 0.3111 0.1522
N2 N 0.2866(3) 0.4283(2) 0.1376(2)
H3 H 0.2907 0.4308 0.1053
P2 P 0.55035(8) 0.07300(6) 0.22574(5)
O2 O 0.2651(5) 0.2593(3) 0.4213(3)
C3 C 0.3855(3) 0.3667(2) 0.1727(2)
N3 N 0.1651(3) 0.4203(2) 0.1241(2)
H4 H 0.1748 0.4183 0.0924
P3 P -0.07908(8) 0.13623(6) 0.14272(5)
C4 C 0.4570(3) 0.3630(3) 0.1898(2)
H5 H 0.4835 0.3999 0.1960
N4 N 0.0132(3) 0.24255(19) 0.18814(16)
P4 P -0.06007(8) 0.06517(6) 0.24741(5)
N5 N 0.0294(3) 0.18186(18) 0.28156(18)
C5 C 0.4884(3) 0.3061(2) 0.1973(2)
H6 H 0.5366 0.3044 0.2089
C6 C 0.3507(3) 0.4289(2) 0.1667(3)
H7 H 0.3389 0.4455 0.1998
H8 H 0.3856 0.4576 0.1513
N6 N 0.1942(4) 0.1753(3) 0.4300(2)
H9 H 0.1919 0.1352 0.4360
C7 C 0.2202(3) 0.4242(2) 0.1573(2)
N7 N 0.3151(4) 0.1636(4) 0.4351(2)
H10 H 0.3076 0.1254 0.4455
C8 C 0.0910(3) 0.4196(2) 0.1405(3)
H11 H 0.0601 0.4349 0.1134
H12 H 0.0857 0.4485 0.1686
N8 N 0.4592(3) 0.1780(2) 0.27625(19)
C9 C 0.0651(3) 0.3570(2) 0.1559(2)
C10 C 0.1079(3) 0.3032(2) 0.1546(2)
H13 H 0.1555 0.3050 0.1420
C11 C 0.0801(3) 0.2479(2) 0.1718(2)
H14 H 0.1101 0.2122 0.1719
C12 C -0.0296(3) 0.2935(3) 0.1892(2)
H15 H -0.0774 0.2898 0.2013
C13 C -0.0054(3) 0.3506(2) 0.1732(2)
H16 H -0.0365 0.3855 0.1739
C14 C 0.0994(3) 0.1709(2) 0.2880(2)
H17 H 0.1266 0.1562 0.2608
C15 C 0.1339(4) 0.1799(3) 0.3322(2)
H18 H 0.1838 0.1712 0.3353
C16 C 0.0942(4) 0.2022(3) 0.3729(2)
C17 C 0.0231(4) 0.2157(3) 0.3650(2)
H19 H -0.0047 0.2326 0.3912
C18 C -0.0091(4) 0.2051(2) 0.3191(2)
H20 H -0.0586 0.2144 0.3145
C19 C 0.1281(5) 0.2092(4) 0.4226(3)
H21 H 0.1378 0.2539 0.4283
H22 H 0.0931 0.1956 0.4478
C20 C 0.2586(5) 0.2025(3) 0.4279(2)
C21 C 0.3870(6) 0.1845(7) 0.4259(3)
H23 H 0.4205 0.1574 0.4444
H24 H 0.3920 0.2270 0.4393
C22 C 0.4100(4) 0.1854(4) 0.3726(3)
C23 C 0.3673(4) 0.1608(4) 0.3352(2)
H25 H 0.3207 0.1454 0.3426
C24 C 0.3925(3) 0.1590(3) 0.2876(2)
H26 H 0.3620 0.1439 0.2622
C25 C 0.5009(4) 0.2030(3) 0.3118(2)
H27 H 0.5475 0.2178 0.3036
C26 C 0.4771(5) 0.2073(4) 0.3599(3)
H28 H 0.5071 0.2254 0.3843
C27 C 0.6393(3) 0.1296(3) 0.1269(3)
H29 H 0.6579 0.1309 0.0927
H30 H 0.6707 0.1563 0.1474
C28 C 0.6434(3) 0.0635(3) 0.1458(2)
H31 H 0.6887 0.0443 0.1342
H32 H 0.6030 0.0393 0.1318
C29 C 0.6403(3) 0.0599(2) 0.2028(2)
H33 H 0.6731 0.0913 0.2170
H34 H 0.6570 0.0184 0.2136
C30 C 0.4993(4) 0.1131(2) 0.0839(2)
C31 C 0.5309(5) 0.0946(3) 0.0401(3)
H35 H 0.5786 0.1075 0.0329
C32 C 0.4955(5) 0.0584(3) 0.0070(3)
H36 H 0.5190 0.0461 -0.0226
C33 C 0.4272(6) 0.0397(4) 0.0156(3)
H37 H 0.4022 0.0156 -0.0082
C34 C 0.3934(5) 0.0566(5) 0.0608(4)
H38 H 0.3462 0.0425 0.0681
C35 C 0.4299(5) 0.0938(4) 0.0939(3)
H39 H 0.4073 0.1061 0.1237
C36 C 0.5566(4) 0.2378(2) 0.1016(2)
C37 C 0.5017(4) 0.2605(3) 0.0719(2)
H40 H 0.4622 0.2346 0.0635
C38 C 0.5050(6) 0.3216(3) 0.0544(3)
H41 H 0.4665 0.3381 0.0355
C39 C 0.5649(5) 0.3581(4) 0.0648(4)
H42 H 0.5689 0.3985 0.0510
C40 C 0.6195(5) 0.3352(3) 0.0960(5)
H43 H 0.6589 0.3609 0.1051
C41 C 0.6149(4) 0.2741(3) 0.1133(3)
H44 H 0.6522 0.2577 0.1333
C42 C 0.5578(3) 0.0670(2) 0.2920(2)
C43 C 0.5010(4) 0.0421(3) 0.3199(2)
H45 H 0.4604 0.0250 0.3036
C44 C 0.5035(5) 0.0421(3) 0.3714(3)
H46 H 0.4643 0.0266 0.3901
C45 C 0.5656(5) 0.0655(3) 0.3951(3)
H47 H 0.5686 0.0650 0.4301
C46 C 0.6218(5) 0.0889(3) 0.3678(3)
H48 H 0.6635 0.1039 0.3842
C47 C 0.6181(4) 0.0908(3) 0.3167(3)
H49 H 0.6566 0.1084 0.2983
C48 C 0.4975(4) 0.0067(2) 0.2063(2)
C49 C 0.5305(4) -0.0516(3) 0.1994(3)
H50 H 0.5808 -0.0566 0.2042
C50 C 0.4874(6) -0.1022(4) 0.1854(4)
H51 H 0.5093 -0.1415 0.1802
C51 C 0.4158(6) -0.0965(4) 0.1791(4)
H52 H 0.3881 -0.1314 0.1691
C52 C 0.3838(6) -0.0414(4) 0.1870(5)
H53 H 0.3329 -0.0381 0.1847
C53 C 0.4248(5) 0.0108(3) 0.1984(4)
H54 H 0.4019 0.0501 0.2007
C54 C -0.1660(3) 0.1005(2) 0.1499(2)
H55 H -0.1977 0.1294 0.1682
H56 H -0.1873 0.0942 0.1168
C55 C -0.1646(3) 0.0378(2) 0.1770(2)
H57 H -0.1256 0.0117 0.1634
H58 H -0.2107 0.0159 0.1716
C56 C -0.1526(3) 0.0470(3) 0.2327(2)
H59 H -0.1667 0.0086 0.2503
H60 H -0.1839 0.0810 0.2446
C57 C -0.0297(3) 0.0882(2) 0.1003(2)
C58 C -0.0631(4) 0.0692(3) 0.0569(2)
H61 H -0.1118 0.0803 0.0511
C59 C -0.0260(4) 0.0342(3) 0.0218(3)
H62 H -0.0489 0.0215 -0.0079
C60 C 0.0455(5) 0.0185(3) 0.0313(3)
H63 H 0.0721 -0.0038 0.0072
C61 C 0.0783(5) 0.0349(4) 0.0755(3)
H64 H 0.1257 0.0211 0.0827
C62 C 0.0409(4) 0.0719(3) 0.1092(3)
H65 H 0.0641 0.0859 0.1384
C63 C -0.0962(3) 0.2074(2) 0.1085(2)
C64 C -0.0457(4) 0.2296(3) 0.0760(2)
H66 H -0.0037 0.2058 0.0695
C65 C -0.0553(5) 0.2866(3) 0.0527(2)
H67 H -0.0197 0.3023 0.0309
C66 C -0.1182(5) 0.3204(3) 0.0617(3)
H68 H -0.1261 0.3584 0.0448
C67 C -0.1701(5) 0.2987(3) 0.0957(3)
H69 H -0.2119 0.3225 0.1027
C68 C -0.1584(4) 0.2413(3) 0.1186(3)
H70 H -0.1930 0.2254 0.1411
C69 C -0.0072(4) -0.0019(2) 0.2293(2)
C70 C -0.0411(4) -0.0607(3) 0.2247(2)
H71 H -0.0906 -0.0656 0.2323
C71 C -0.0001(6) -0.1109(3) 0.2089(3)
H72 H -0.0224 -0.1501 0.2044
C72 C 0.0740(6) -0.1043(4) 0.1995(4)
H73 H 0.1014 -0.1388 0.1883
C73 C 0.1070(6) -0.0464(5) 0.2068(5)
H74 H 0.1574 -0.0418 0.2030
C74 C 0.0650(5) 0.0034(3) 0.2195(4)
H75 H 0.0867 0.0433 0.2215
C75 C -0.0556(4) 0.0666(3) 0.3137(2)
C76 C -0.1159(4) 0.0855(3) 0.3428(3)
H76 H -0.1598 0.0967 0.3273
C77 C -0.1101(5) 0.0873(4) 0.3937(3)
H77 H -0.1508 0.0985 0.4129
C78 C -0.0473(6) 0.0734(4) 0.4167(3)
H78 H -0.0447 0.0757 0.4516
C79 C 0.0136(5) 0.0558(3) 0.3901(3)
H79 H 0.0575 0.0467 0.4065
C80 C 0.0086(4) 0.0519(2) 0.3378(2)
H80 H 0.0492 0.0392 0.3192
S1 S -0.23582(12) 0.22401(9) 0.26318(8)
F1 F -0.2457(4) 0.3451(3) 0.2821(4)
O3 O -0.1603(3) 0.2307(3) 0.2572(3)
C81 C -0.2686(6) 0.3045(6) 0.2498(5)
F2 F -0.2472(6) 0.3223(4) 0.2089(4)
O4 O -0.2716(4) 0.1928(3) 0.2235(3)
O5 O -0.2597(7) 0.2108(6) 0.3125(3)
F3 F -0.3402(4) 0.3016(6) 0.2544(5)
S2 S 0.23870(13) 0.10411(10) 0.16063(11)
O6 O 0.1736(3) 0.1170(3) 0.1874(2)
F4 F 0.1714(4) 0.1560(4) 0.0851(3)
C82 C 0.2316(5) 0.1572(4) 0.1091(4)
F5 F 0.2870(4) 0.1575(4) 0.0792(3)
O7 O 0.2400(5) 0.0430(4) 0.1381(4)
O8 O 0.3055(3) 0.1210(2) 0.1831(2)
F6 F 0.2348(4) 0.2172(3) 0.1224(3)
S3 S 0.25087(15) -0.00126(10) 0.41799(15)
O9 O 0.1921(4) 0.0396(3) 0.4332(4)
F7 F 0.2362(6) 0.0453(4) 0.3317(5)
C83 C 0.2352(11) -0.0108(6) 0.3529(7)
O10 O 0.3197(4) 0.0309(4) 0.4217(4)
F8 F 0.2859(7) -0.0450(4) 0.3327(4)
O11 O 0.2481(5) -0.0641(4) 0.4384(6)
F9 F 0.1721(6) -0.0377(4) 0.3435(5)
S4 S 0.24677(18) 0.4208(3) 0.00360(11)
O12 O 0.2520(4) 0.4265(5) -0.04896(16)
F10 F 0.2101(7) 0.2983(7) -0.0152(4)
C84 C 0.2529(7) 0.3345(4) 0.0114(4)
O13 O 0.3042(3) 0.4474(4) 0.0325(2)
F11 F 0.2442(6) 0.3141(6) 0.0571(4)
O14 O 0.1757(3) 0.4341(5) 0.0233(3)
F12 F 0.3193(7) 0.3186(9) 0.0002(6)
O15 O 0.0050(11) 0.2910(7) 0.4773(7)
H81 H -0.0209 0.2813 0.5015
C85 C -0.0805(14) 0.3470(16) 0.4400(12)
H82 H -0.1154 0.3315 0.4641
H83 H -0.0764 0.3173 0.4127
H84 H -0.0967 0.3872 0.4272
C86 C 0.0401(12) 0.3787(11) 0.4224(8)
H85 H 0.0902 0.3817 0.4333
H86 H 0.0231 0.4198 0.4121
H87 H 0.0369 0.3499 0.3945
C87 C -0.0068(12) 0.3547(8) 0.4650(9)
H88 H -0.0077 0.3830 0.4943
O16 O 0.2869(3) 0.4202(2) 0.2885(2)
H89 H 0.3086 0.4088 0.2629
C88 C 0.2733(5) 0.3691(4) 0.3182(4)
H90 H 0.2973 0.3748 0.3509
C89 C 0.1926(7) 0.3543(5) 0.3261(6)
H91 H 0.1664 0.3929 0.3327
H92 H 0.1873 0.3261 0.3542
H93 H 0.1732 0.3346 0.2964
C90 C 0.3041(8) 0.3097(5) 0.2921(6)
H94 H 0.3539 0.3173 0.2820
H95 H 0.2750 0.3001 0.2630
H96 H 0.3026 0.2746 0.3151
loop_
_geom_bond_atom_site_label_1
_geom_bond_atom_site_label_2
_geom_bond_site_symmetry_1
_geom_bond_site_symmetry_2
Pd1 P1 1_555 1_555
P1 C27 1_555 1_555
N1 Pd1 1_555 1_555
C1 N1 1_555 1_555
H1 C1 1_555 1_555
O1 C7 1_555 1_555
Pd2 P3 1_555 1_555
C2 C1 1_555 1_555
H2 C2 1_555 1_555
N2 H3 1_555 1_555
P2 Pd1 1_555 1_555
O2 C20 1_555 1_555
C3 C2 1_555 1_555
N3 H4 1_555 1_555
P3 C54 1_555 1_555
C4 C3 1_555 1_555
H5 C4 1_555 1_555
N4 Pd2 1_555 1_555
P4 Pd2 1_555 1_555
N5 Pd2 1_555 1_555
C5 N1 1_555 1_555
H6 C5 1_555 1_555
C6 N2 1_555 1_555
H7 C6 1_555 1_555
H8 C6 1_555 1_555
N6 H9 1_555 1_555
C7 N2 1_555 1_555
N7 H10 1_555 1_555
C8 N3 1_555 1_555
H11 C8 1_555 1_555
H12 C8 1_555 1_555
N8 Pd1 1_555 1_555
C9 C8 1_555 1_555
C10 C9 1_555 1_555
H13 C10 1_555 1_555
C11 N4 1_555 1_555
H14 C11 1_555 1_555
C12 N4 1_555 1_555
H15 C12 1_555 1_555
C13 C9 1_555 1_555
H16 C13 1_555 1_555
C14 N5 1_555 1_555
H17 C14 1_555 1_555
C15 C14 1_555 1_555
H18 C15 1_555 1_555
C16 C15 1_555 1_555
C17 C16 1_555 1_555
H19 C17 1_555 1_555
C18 N5 1_555 1_555
H20 C18 1_555 1_555
C19 N6 1_555 1_555
H21 C19 1_555 1_555
H22 C19 1_555 1_555
C20 N6 1_555 1_555
C21 N7 1_555 1_555
H23 C21 1_555 1_555
H24 C21 1_555 1_555
C22 C21 1_555 1_555
C23 C22 1_555 1_555
H25 C23 1_555 1_555
C24 N8 1_555 1_555
H26 C24 1_555 1_555
C25 N8 1_555 1_555
H27 C25 1_555 1_555
C26 C22 1_555 1_555
H28 C26 1_555 1_555
C27 H29 1_555 1_555
H30 C27 1_555 1_555
C28 C27 1_555 1_555
H31 C28 1_555 1_555
H32 C28 1_555 1_555
C29 P2 1_555 1_555
H33 C29 1_555 1_555
H34 C29 1_555 1_555
C30 P1 1_555 1_555
C31 C30 1_555 1_555
H35 C31 1_555 1_555
C32 C31 1_555 1_555
H36 C32 1_555 1_555
C33 C32 1_555 1_555
H37 C33 1_555 1_555
C34 C33 1_555 1_555
H38 C34 1_555 1_555
C35 C30 1_555 1_555
H39 C35 1_555 1_555
C36 P1 1_555 1_555
C37 C36 1_555 1_555
H40 C37 1_555 1_555
C38 C37 1_555 1_555
H41 C38 1_555 1_555
C39 C38 1_555 1_555
H42 C39 1_555 1_555
C40 C39 1_555 1_555
H43 C40 1_555 1_555
C41 C36 1_555 1_555
H44 C41 1_555 1_555
C42 P2 1_555 1_555
C43 C42 1_555 1_555
H45 C43 1_555 1_555
C44 C43 1_555 1_555
H46 C44 1_555 1_555
C45 C44 1_555 1_555
H47 C45 1_555 1_555
C46 C45 1_555 1_555
H48 C46 1_555 1_555
C47 C42 1_555 1_555
H49 C47 1_555 1_555
C48 P2 1_555 1_555
C49 C48 1_555 1_555
H50 C49 1_555 1_555
C50 C49 1_555 1_555
H51 C50 1_555 1_555
C51 C50 1_555 1_555
H52 C51 1_555 1_555
C52 C51 1_555 1_555
H53 C52 1_555 1_555
C53 C48 1_555 1_555
H54 C53 1_555 1_555
C54 H55 1_555 1_555
H56 C54 1_555 1_555
C55 C54 1_555 1_555
H57 C55 1_555 1_555
H58 C55 1_555 1_555
C56 P4 1_555 1_555
H59 C56 1_555 1_555
H60 C56 1_555 1_555
C57 P3 1_555 1_555
C58 C57 1_555 1_555
H61 C58 1_555 1_555
C59 C58 1_555 1_555
H62 C59 1_555 1_555
C60 C59 1_555 1_555
H63 C60 1_555 1_555
C61 C60 1_555 1_555
H64 C61 1_555 1_555
C62 C57 1_555 1_555
H65 C62 1_555 1_555
C63 P3 1_555 1_555
C64 C63 1_555 1_555
H66 C64 1_555 1_555
C65 C64 1_555 1_555
H67 C65 1_555 1_555
C66 C65 1_555 1_555
H68 C66 1_555 1_555
C67 C66 1_555 1_555
H69 C67 1_555 1_555
C68 C63 1_555 1_555
H70 C68 1_555 1_555
C69 P4 1_555 1_555
C70 C69 1_555 1_555
H71 C70 1_555 1_555
C71 C70 1_555 1_555
H72 C71 1_555 1_555
C72 C71 1_555 1_555
H73 C72 1_555 1_555
C73 C72 1_555 1_555
H74 C73 1_555 1_555
C74 C69 1_555 1_555
H75 C74 1_555 1_555
C75 P4 1_555 1_555
C76 C75 1_555 1_555
H76 C76 1_555 1_555
C77 C76 1_555 1_555
H77 C77 1_555 1_555
C78 C77 1_555 1_555
H78 C78 1_555 1_555
C79 C78 1_555 1_555
H79 C79 1_555 1_555
C80 C75 1_555 1_555
H80 C80 1_555 1_555
S1 O3 1_555 1_555
F1 C81 1_555 1_555
C81 S1 1_555 1_555
F2 C81 1_555 1_555
O4 S1 1_555 1_555
O5 S1 1_555 1_555
F3 C81 1_555 1_555
S2 O6 1_555 1_555
F4 C82 1_555 1_555
C82 S2 1_555 1_555
F5 C82 1_555 1_555
O7 S2 1_555 1_555
O8 S2 1_555 1_555
F6 C82 1_555 1_555
S3 O9 1_555 1_555
F7 C83 1_555 1_555
C83 S3 1_555 1_555
O10 S3 1_555 1_555
F8 C83 1_555 1_555
O11 S3 1_555 1_555
F9 C83 1_555 1_555
S4 O12 1_555 1_555
F10 C84 1_555 1_555
C84 S4 1_555 1_555
O13 S4 1_555 1_555
F11 C84 1_555 1_555
O14 S4 1_555 1_555
F12 C84 1_555 1_555
O15 H81 1_555 1_555
C85 H82 1_555 1_555
H83 C85 1_555 1_555
H84 C85 1_555 1_555
C86 H85 1_555 1_555
H86 C86 1_555 1_555
H87 C86 1_555 1_555
C87 O15 1_555 1_555
H88 C87 1_555 1_555
O16 H89 1_555 1_555
C88 O16 1_555 1_555
H90 C88 1_555 1_555
C89 C88 1_555 1_555
H91 C89 1_555 1_555
H92 C89 1_555 1_555
H93 C89 1_555 1_555
C90 C88 1_555 1_555
H94 C90 1_555 1_555
H95 C90 1_555 1_555
H96 C90 1_555 1_555
C3 C6 1_555 1_555
N3 C7 1_555 1_555
C4 C5 1_555 1_555
N7 C20 1_555 1_555
C10 C11 1_555 1_555
C12 C13 1_555 1_555
C16 C19 1_555 1_555
C17 C18 1_555 1_555
C23 C24 1_555 1_555
C25 C26 1_555 1_555
C28 C29 1_555 1_555
C34 C35 1_555 1_555
C40 C41 1_555 1_555
C46 C47 1_555 1_555
C52 C53 1_555 1_555
C55 C56 1_555 1_555
C61 C62 1_555 1_555
C67 C68 1_555 1_555
C73 C74 1_555 1_555
C79 C80 1_555 1_555
C85 C87 1_555 1_555
C86 C87 1_555 1_555

#END
