
#######################################################################
#
#                 Cambridge Crystallographic Data Centre
#                                CCDC 
#
#######################################################################
#
# If this CIF has been generated from an entry in the Cambridge 
# Structural Database, then it will include bibliographic, chemical, 
# crystal, experimental, refinement or atomic coordinate data resulting 
# from the CCDC's data processing and validation procedures.
#
#######################################################################

data_YOTNAY
_chemical_formula_moiety         'C44 H28 I4 N4 O8 Zn2,C1 H2 Cl2'
_chemical_name_systematic        
'tetraiodo-bis(\m-naphthalene-2,7-diyl dinicotinate)-di-zinc dichloromethane solvate'
_symmetry_cell_setting           triclinic
_symmetry_space_group_name_H-M   'P -1'
_symmetry_Int_Tables_number      2
_space_group_name_Hall           '-P 1'
loop_
_symmetry_equiv_pos_site_id
_symmetry_equiv_pos_as_xyz
1 x,y,z
2 -x,-y,-z
_cell_length_a                   9.76020(10)
_cell_length_b                   17.0271(2)
_cell_length_c                   17.4437(2)
_cell_angle_alpha                115.2230(10)
_cell_angle_beta                 96.0340(10)
_cell_angle_gamma                94.9010(10)
_cell_volume                     2580.54
_exptl_crystal_colour            colorless
_exptl_crystal_description       block
_cell_formula_units_Z            2
loop_
_atom_site_label
_atom_site_type_symbol
_atom_site_fract_x
_atom_site_fract_y
_atom_site_fract_z
Zn2 Zn 1.23668(7) 1.88196(4) 1.01517(4)
I3 I 1.33239(5) 2.03623(3) 1.12867(3)
I4 I 1.05508(4) 1.78110(3) 1.03907(3)
O5 O 1.3343(7) 1.6235(5) 0.7238(4)
O6 O 1.5468(4) 1.5893(3) 0.7379(3)
O7 O 1.1895(5) 1.2207(3) 0.3452(3)
O8 O 1.2140(5) 1.2702(3) 0.2462(3)
N3 N 1.4040(5) 1.8192(3) 0.9707(3)
N4 N 0.8417(5) 1.1187(3) 0.1004(3)
C23 C 1.5345(6) 1.8435(4) 1.0135(4)
H15 H 1.5523 1.8910 1.0693
C24 C 1.6438(6) 1.8020(4) 0.9791(4)
H16 H 1.7351 1.8208 1.0111
C25 C 1.6200(6) 1.7325(4) 0.8977(4)
H17 H 1.6940 1.7029 0.8731
C26 C 1.4866(6) 1.7076(4) 0.8537(4)
C27 C 1.3814(6) 1.7513(4) 0.8924(4)
H18 H 1.2889 1.7324 0.8621
C28 C 1.4435(7) 1.6352(4) 0.7649(4)
C29 C 1.5372(6) 1.5199(4) 0.6559(4)
C30 C 1.6683(6) 1.5020(4) 0.6321(4)
H19 H 1.7503 1.5383 0.6686
C31 C 1.6779(7) 1.4331(4) 0.5573(4)
H20 H 1.7670 1.4210 0.5420
C32 C 1.5556(6) 1.3783(4) 0.5009(4)
C33 C 1.5622(7) 1.3043(4) 0.4236(4)
H21 H 1.6501 1.2904 0.4072
C34 C 1.4422(7) 1.2524(4) 0.3718(4)
H22 H 1.4464 1.2019 0.3204
C35 C 1.3137(7) 1.2753(4) 0.3961(4)
C36 C 1.3017(6) 1.3456(4) 0.4694(4)
H23 H 1.2125 1.3590 0.4837
C37 C 1.4252(6) 1.3992(4) 0.5251(4)
C38 C 1.4168(6) 1.4715(4) 0.6043(4)
H24 H 1.3291 1.4856 0.6209
C39 C 1.1480(6) 1.2268(4) 0.2715(4)
C40 C 1.0094(6) 1.1741(4) 0.2279(4)
C41 C 0.9662(6) 1.1616(4) 0.1450(4)
H25 H 1.0280 1.1846 0.1186
C42 C 0.7557(7) 1.0859(4) 0.1388(4)
H26 H 0.6672 1.0546 0.1076
C43 C 0.7907(7) 1.0958(4) 0.2213(4)
H27 H 0.7272 1.0722 0.2464
C44 C 0.9189(7) 1.1406(4) 0.2667(4)
H28 H 0.9453 1.1484 0.3238
Zn2A Zn 0.76332(7) 1.11804(4) -0.01517(4)
I3A I 0.66761(5) 0.96377(3) -0.12867(3)
I4A I 0.94492(4) 1.21890(3) -0.03907(3)
O5A O 0.6657(7) 1.3765(5) 0.2762(4)
O6A O 0.4532(4) 1.4107(3) 0.2621(3)
O7A O 0.8105(5) 1.7793(3) 0.6548(3)
O8A O 0.7860(5) 1.7298(3) 0.7538(3)
N3A N 0.5960(5) 1.1808(3) 0.0293(3)
N4A N 1.1583(5) 1.8813(3) 0.8996(3)
C23A C 0.4655(6) 1.1565(4) -0.0135(4)
H15A H 0.4477 1.1090 -0.0693
C24A C 0.3562(6) 1.1980(4) 0.0209(4)
H16A H 0.2649 1.1792 -0.0111
C25A C 0.3800(6) 1.2675(4) 0.1023(4)
H17A H 0.3060 1.2971 0.1269
C26A C 0.5134(6) 1.2924(4) 0.1463(4)
C27A C 0.6186(6) 1.2487(4) 0.1076(4)
H18A H 0.7111 1.2676 0.1379
C28A C 0.5565(7) 1.3648(4) 0.2351(4)
C29A C 0.4628(6) 1.4801(4) 0.3441(4)
C30A C 0.3317(6) 1.4980(4) 0.3679(4)
H19A H 0.2497 1.4617 0.3314
C31A C 0.3221(7) 1.5669(4) 0.4427(4)
H20A H 0.2330 1.5790 0.4580
C32A C 0.4444(6) 1.6217(4) 0.4991(4)
C33A C 0.4378(7) 1.6957(4) 0.5764(4)
H21A H 0.3499 1.7096 0.5928
C34A C 0.5578(7) 1.7476(4) 0.6282(4)
H22A H 0.5536 1.7981 0.6796
C35A C 0.6863(7) 1.7247(4) 0.6039(4)
C36A C 0.6983(6) 1.6544(4) 0.5306(4)
H23A H 0.7875 1.6410 0.5163
C37A C 0.5748(6) 1.6008(4) 0.4749(4)
C38A C 0.5832(6) 1.5285(4) 0.3957(4)
H24A H 0.6709 1.5144 0.3791
C39A C 0.8520(6) 1.7732(4) 0.7285(4)
C40A C 0.9906(6) 1.8259(4) 0.7721(4)
C41A C 1.0338(6) 1.8384(4) 0.8550(4)
H25A H 0.9720 1.8154 0.8814
C42A C 1.2443(7) 1.9141(4) 0.8612(4)
H26A H 1.3328 1.9454 0.8924
C43A C 1.2093(7) 1.9042(4) 0.7787(4)
H27A H 1.2728 1.9278 0.7536
C44A C 1.0811(7) 1.8594(4) 0.7333(4)
H28A H 1.0547 1.8516 0.6762
Cl1 Cl 1.9881(5) 1.4019(4) 1.1990(3)
Cl2 Cl 1.9729(7) 1.4301(6) 1.3769(4)
C45 C 1.953(3) 1.4712(8) 1.3006(6)
H29 H 1.8563 1.4836 1.2945
H30 H 2.0157 1.5276 1.3225
Cl3 Cl 1.9931(4) 1.6219(2) 1.2031(3)
Cl4 Cl 1.9702(6) 1.5249(6) 1.0145(3)
C46 C 2.0672(15) 1.5542(16) 1.1154(4)
H31 H 2.1600 1.5845 1.1180
H32 H 2.0814 1.4999 1.1210
Cl3A Cl 2.0069(4) 1.3781(2) 0.7969(3)
Cl4A Cl 2.0298(6) 1.4751(6) 0.9855(3)
C46A C 1.9328(15) 1.4458(16) 0.8846(4)
H31A H 1.8400 1.4155 0.8820
H32A H 1.9186 1.5001 0.8790
Zn1 Zn 0.76769(7) 1.14990(4) 0.52810(4)
I1 I 0.96254(4) 1.26022(3) 0.53113(3)
I2 I 0.66554(5) 1.01304(3) 0.39087(3)
O1 O 1.1920(5) 1.0993(3) 0.8212(3)
O2 O 1.2016(4) 1.2075(3) 0.7782(3)
O3 O 1.5418(4) 1.5600(3) 1.1888(3)
O4 O 1.3137(5) 1.5577(4) 1.1973(4)
N1 N 0.8346(5) 1.1057(3) 0.6174(3)
N2 N 1.3967(5) 1.7883(3) 1.4208(3)
C1 C 0.9605(6) 1.1325(4) 0.6655(4)
H1 H 1.0222 1.1755 0.6601
C2 C 1.0043(6) 1.0998(4) 0.7231(3)
C3 C 0.9138(7) 1.0378(4) 0.7313(4)
H2 H 0.9409 1.0143 0.7702
C4 C 0.7833(8) 1.0107(5) 0.6820(5)
H3 H 0.7191 0.9684 0.6868
C5 C 0.7471(7) 1.0455(5) 0.6259(4)
H4 H 0.6573 1.0263 0.5920
C6 C 1.1417(6) 1.1324(4) 0.7795(4)
C7 C 1.3220(6) 1.2520(4) 0.8389(4)
C8 C 1.4524(7) 1.2252(4) 0.8204(4)
H5 H 1.4589 1.1760 0.7684
C9 C 1.5687(6) 1.2710(4) 0.8783(4)
H6 H 1.6570 1.2538 0.8662
C10 C 1.5601(6) 1.3440(4) 0.9564(4)
C11 C 1.6779(6) 1.3927(4) 1.0187(4)
H7 H 1.7675 1.3769 1.0080
C12 C 1.6655(6) 1.4613(4) 1.0932(4)
H8 H 1.7457 1.4927 1.1348
C13 C 1.5336(6) 1.4861(4) 1.1091(4)
C14 C 1.4164(6) 1.4424(4) 1.0529(4)
H9 H 1.3284 1.4598 1.0656
C15 C 1.4268(6) 1.3699(4) 0.9739(4)
C16 C 1.3069(6) 1.3223(4) 0.9125(4)
H10 H 1.2176 1.3390 0.9223
C17 C 1.4303(7) 1.5899(4) 1.2242(4)
C18 C 1.4744(6) 1.6712(4) 1.3064(4)
C19 C 1.6126(6) 1.7053(4) 1.3436(4)
H11 H 1.6866 1.6773 1.3172
C20 C 1.6390(6) 1.7806(4) 1.4197(4)
H12 H 1.7321 1.8055 1.4468
C21 C 1.5287(6) 1.8198(4) 1.4565(4)
H13 H 1.5483 1.8713 1.5095
C22 C 1.3705(6) 1.7142(4) 1.3465(4)
H14 H 1.2764 1.6908 1.3207
Zn1A Zn 1.23231(7) 1.85010(4) 1.47190(4)
I1A I 1.03746(4) 1.73978(3) 1.46887(3)
I2A I 1.33446(5) 1.98696(3) 1.60913(3)
O1A O 0.8080(5) 1.9007(3) 1.1788(3)
O2A O 0.7984(4) 1.7925(3) 1.2218(3)
O3A O 0.4582(4) 1.4400(3) 0.8112(3)
O4A O 0.6863(5) 1.4423(4) 0.8027(4)
N1A N 1.1654(5) 1.8943(3) 1.3826(3)
N2A N 0.6033(5) 1.2117(3) 0.5792(3)
C1A C 1.0395(6) 1.8675(4) 1.3345(4)
H1A H 0.9778 1.8245 1.3399
C2A C 0.9957(6) 1.9002(4) 1.2769(3)
C3A C 1.0862(7) 1.9622(4) 1.2687(4)
H2A H 1.0591 1.9857 1.2298
C4A C 1.2167(8) 1.9893(5) 1.3180(5)
H3A H 1.2809 2.0316 1.3132
C5A C 1.2529(7) 1.9545(5) 1.3741(4)
H4A H 1.3427 1.9737 1.4080
C6A C 0.8583(6) 1.8676(4) 1.2205(4)
C7A C 0.6780(6) 1.7480(4) 1.1611(4)
C8A C 0.5476(7) 1.7748(4) 1.1796(4)
H5A H 0.5411 1.8240 1.2316
C9A C 0.4313(6) 1.7290(4) 1.1217(4)
H6A H 0.3430 1.7462 1.1338
C10A C 0.4399(6) 1.6560(4) 1.0436(4)
C11A C 0.3221(6) 1.6073(4) 0.9813(4)
H7A H 0.2325 1.6231 0.9920
C12A C 0.3345(6) 1.5387(4) 0.9068(4)
H8A H 0.2543 1.5073 0.8652
C13A C 0.4664(6) 1.5139(4) 0.8909(4)
C14A C 0.5836(6) 1.5576(4) 0.9471(4)
H9A H 0.6716 1.5402 0.9344
C15A C 0.5732(6) 1.6301(4) 1.0261(4)
C16A C 0.6931(6) 1.6777(4) 1.0875(4)
H10A H 0.7824 1.6610 1.0777
C17A C 0.5697(7) 1.4101(4) 0.7758(4)
C18A C 0.5256(6) 1.3288(4) 0.6936(4)
C19A C 0.3874(6) 1.2947(4) 0.6564(4)
H11A H 0.3134 1.3227 0.6828
C20A C 0.3610(6) 1.2194(4) 0.5803(4)
H12A H 0.2679 1.1945 0.5532
C21A C 0.4713(6) 1.1802(4) 0.5435(4)
H13A H 0.4517 1.1287 0.4905
C22A C 0.6295(6) 1.2858(4) 0.6535(4)
H14A H 0.7236 1.3092 0.6793
loop_
_geom_bond_atom_site_label_1
_geom_bond_atom_site_label_2
_geom_bond_site_symmetry_1
_geom_bond_site_symmetry_2
Zn1 I1 1_555 1_555
I2 Zn1 1_555 1_555
O1 C6 1_555 1_555
O2 C6 1_555 1_555
O3 C13 1_555 1_555
O4 C17 1_555 1_555
N1 Zn1 1_555 1_555
N2 C21 1_555 1_555
C1 N1 1_555 1_555
H1 C1 1_555 1_555
C2 C1 1_555 1_555
C3 C2 1_555 1_555
H2 C3 1_555 1_555
C4 C3 1_555 1_555
H3 C4 1_555 1_555
C5 N1 1_555 1_555
H4 C5 1_555 1_555
C6 C2 1_555 1_555
C7 O2 1_555 1_555
C8 C7 1_555 1_555
H5 C8 1_555 1_555
C9 C8 1_555 1_555
H6 C9 1_555 1_555
C10 C9 1_555 1_555
C11 C10 1_555 1_555
H7 C11 1_555 1_555
C12 C11 1_555 1_555
H8 C12 1_555 1_555
C13 C12 1_555 1_555
C14 C13 1_555 1_555
H9 C14 1_555 1_555
C15 C10 1_555 1_555
C16 C7 1_555 1_555
H10 C16 1_555 1_555
C17 O3 1_555 1_555
C18 C17 1_555 1_555
C19 C18 1_555 1_555
H11 C19 1_555 1_555
C20 C19 1_555 1_555
H12 C20 1_555 1_555
C21 C20 1_555 1_555
H13 C21 1_555 1_555
C22 N2 1_555 1_555
H14 C22 1_555 1_555
Zn2 I3 1_555 1_555
I4 Zn2 1_555 1_555
O5 C28 1_555 1_555
O6 C28 1_555 1_555
O7 C35 1_555 1_555
O8 C39 1_555 1_555
N3 Zn2 1_555 1_555
N4 C41 1_555 1_555
C23 N3 1_555 1_555
H15 C23 1_555 1_555
C24 C23 1_555 1_555
H16 C24 1_555 1_555
C25 C24 1_555 1_555
H17 C25 1_555 1_555
C26 C25 1_555 1_555
C27 N3 1_555 1_555
H18 C27 1_555 1_555
C28 C26 1_555 1_555
C29 O6 1_555 1_555
C30 C29 1_555 1_555
H19 C30 1_555 1_555
C31 C30 1_555 1_555
H20 C31 1_555 1_555
C32 C31 1_555 1_555
C33 C32 1_555 1_555
H21 C33 1_555 1_555
C34 C33 1_555 1_555
H22 C34 1_555 1_555
C35 C34 1_555 1_555
C36 C35 1_555 1_555
H23 C36 1_555 1_555
C37 C32 1_555 1_555
C38 C29 1_555 1_555
H24 C38 1_555 1_555
C39 O7 1_555 1_555
C40 C39 1_555 1_555
C41 C40 1_555 1_555
H25 C41 1_555 1_555
C42 N4 1_555 1_555
H26 C42 1_555 1_555
C43 C42 1_555 1_555
H27 C43 1_555 1_555
C44 C40 1_555 1_555
H28 C44 1_555 1_555
Cl1 C45 1_555 1_555
Cl2 C45 1_555 1_555
C45 H29 1_555 1_555
H30 C45 1_555 1_555
Cl3 C46 1_555 1_555
Cl4 C46 1_555 1_555
C46 H31 1_555 1_555
H32 C46 1_555 1_555
Zn1A N2 1_555 1_555
I1A Zn1A 1_555 1_555
I2A Zn1A 1_555 1_555
O1A C6A 1_555 1_555
O2A C6A 1_555 1_555
O3A C13A 1_555 1_555
O4A C17A 1_555 1_555
N1A Zn1A 1_555 1_555
N2A Zn1 1_555 1_555
C1A N1A 1_555 1_555
H1A C1A 1_555 1_555
C2A C1A 1_555 1_555
C3A C2A 1_555 1_555
H2A C3A 1_555 1_555
C4A C3A 1_555 1_555
H3A C4A 1_555 1_555
C5A N1A 1_555 1_555
H4A C5A 1_555 1_555
C6A C2A 1_555 1_555
C7A O2A 1_555 1_555
C8A C7A 1_555 1_555
H5A C8A 1_555 1_555
C9A C8A 1_555 1_555
H6A C9A 1_555 1_555
C10A C9A 1_555 1_555
C11A C10A 1_555 1_555
H7A C11A 1_555 1_555
C12A C11A 1_555 1_555
H8A C12A 1_555 1_555
C13A C12A 1_555 1_555
C14A C13A 1_555 1_555
H9A C14A 1_555 1_555
C15A C10A 1_555 1_555
C16A C7A 1_555 1_555
H10A C16A 1_555 1_555
C17A O3A 1_555 1_555
C18A C17A 1_555 1_555
C19A C18A 1_555 1_555
H11A C19A 1_555 1_555
C20A C19A 1_555 1_555
H12A C20A 1_555 1_555
C21A N2A 1_555 1_555
H13A C21A 1_555 1_555
C22A N2A 1_555 1_555
H14A C22A 1_555 1_555
Zn2A N4 1_555 1_555
I3A Zn2A 1_555 1_555
I4A Zn2A 1_555 1_555
O5A C28A 1_555 1_555
O6A C28A 1_555 1_555
O7A C35A 1_555 1_555
O8A C39A 1_555 1_555
N3A Zn2A 1_555 1_555
N4A Zn2 1_555 1_555
C23A N3A 1_555 1_555
H15A C23A 1_555 1_555
C24A C23A 1_555 1_555
H16A C24A 1_555 1_555
C25A C24A 1_555 1_555
H17A C25A 1_555 1_555
C26A C25A 1_555 1_555
C27A N3A 1_555 1_555
H18A C27A 1_555 1_555
C28A C26A 1_555 1_555
C29A O6A 1_555 1_555
C30A C29A 1_555 1_555
H19A C30A 1_555 1_555
C31A C30A 1_555 1_555
H20A C31A 1_555 1_555
C32A C31A 1_555 1_555
C33A C32A 1_555 1_555
H21A C33A 1_555 1_555
C34A C33A 1_555 1_555
H22A C34A 1_555 1_555
C35A C34A 1_555 1_555
C36A C35A 1_555 1_555
H23A C36A 1_555 1_555
C37A C32A 1_555 1_555
C38A C29A 1_555 1_555
H24A C38A 1_555 1_555
C39A O7A 1_555 1_555
C40A C39A 1_555 1_555
C41A N4A 1_555 1_555
H25A C41A 1_555 1_555
C42A N4A 1_555 1_555
H26A C42A 1_555 1_555
C43A C42A 1_555 1_555
H27A C43A 1_555 1_555
C44A C40A 1_555 1_555
H28A C44A 1_555 1_555
Cl3A C46A 1_555 1_555
Cl4A Cl4 1_555 1_555
C46A Cl4 1_555 1_555
H31A C46A 1_555 1_555
H32A C46A 1_555 1_555
C4 C5 1_555 1_555
C14 C15 1_555 1_555
C15 C16 1_555 1_555
C18 C22 1_555 1_555
C26 C27 1_555 1_555
C36 C37 1_555 1_555
C37 C38 1_555 1_555
C43 C44 1_555 1_555
C46 Cl4A 1_555 1_555
C4A C5A 1_555 1_555
C14A C15A 1_555 1_555
C15A C16A 1_555 1_555
C18A C22A 1_555 1_555
C20A C21A 1_555 1_555
C26A C27A 1_555 1_555
C36A C37A 1_555 1_555
C37A C38A 1_555 1_555
C40A C41A 1_555 1_555
C43A C44A 1_555 1_555
Cl4A C46A 1_555 1_555

#END
