
#######################################################################
#
#                 Cambridge Crystallographic Data Centre
#                                CCDC 
#
#######################################################################
#
# If this CIF has been generated from an entry in the Cambridge 
# Structural Database, then it will include bibliographic, chemical, 
# crystal, experimental, refinement or atomic coordinate data resulting 
# from the CCDC's data processing and validation procedures.
#
#######################################################################

data_YUDGEL
_chemical_formula_moiety         'C52 H78 N20 O4 Pd3 6+,3(C4 H8 O2),6(N1 O3 1-)'
_chemical_name_systematic        
"bis(\m~3~-1,1'-pyridine-3,5-diylbis(3-pyridin-3-ylurea))-tris(N,N,N',N'-tetramethylethane-1,2-diamine)-tri-palladium hexakis(nitrate) 1,4-dioxane unknown solvate"
_symmetry_cell_setting           monoclinic
_symmetry_space_group_name_H-M   'P 21/n'
_symmetry_Int_Tables_number      14
_space_group_name_Hall           '-P 2yn'
loop_
_symmetry_equiv_pos_site_id
_symmetry_equiv_pos_as_xyz
1 x,y,z
2 1/2-x,1/2+y,1/2-z
3 -x,-y,-z
4 1/2+x,1/2-y,1/2+z
_cell_length_a                   14.5522(4)
_cell_length_b                   24.6215(5)
_cell_length_c                   27.3165(6)
_cell_angle_alpha                90
_cell_angle_beta                 101.1090(10)
_cell_angle_gamma                90
_cell_volume                     9604.03
_exptl_crystal_description       block
_cell_formula_units_Z            4
loop_
_atom_site_label
_atom_site_type_symbol
_atom_site_fract_x
_atom_site_fract_y
_atom_site_fract_z
C1 C 0.6807(6) 0.0464(3) 0.9646(2)
H1 H 0.7201 0.0377 0.9960
H2 H 0.6190 0.0553 0.9698
H3 H 0.7063 0.0770 0.9500
C2 C 0.6323(7) -0.0454(3) 0.9528(2)
H4 H 0.6187 -0.0745 0.9291
H5 H 0.5752 -0.0331 0.9619
H6 H 0.6744 -0.0581 0.9820
C3 C 0.7193(6) -0.0520(3) 0.8087(4)
H7 H 0.7798 -0.0636 0.8037
H8 H 0.6794 -0.0454 0.7769
H9 H 0.6922 -0.0797 0.8261
C4 C 0.7625(7) 0.0415(3) 0.8086(5)
H10 H 0.7097 0.0597 0.7889
H11 H 0.8006 0.0262 0.7871
H12 H 0.7987 0.0670 0.8309
C5 C 0.4984(4) 0.00671(18) 0.75669(19)
H13 H 0.4971 -0.0299 0.7648
C6 C 0.4547(4) 0.02449(19) 0.70938(19)
H14 H 0.4277 -0.0006 0.6854
C7 C 0.4516(4) 0.07768(19) 0.69851(17)
H15 H 0.4209 0.0894 0.6673
C8 C 0.4943(3) 0.11582(17) 0.73407(16)
C9 C 0.5394(3) 0.09546(17) 0.77979(16)
H16 H 0.5687 0.1196 0.8040
C10 C 0.5146(3) 0.21290(16) 0.75505(17)
C11 C 0.5568(3) 0.30965(16) 0.75432(15)
C12 C 0.5304(3) 0.35939(15) 0.73209(15)
H17 H 0.4886 0.3607 0.7017
C13 C 0.5661(3) 0.40692(15) 0.75509(14)
C14 C 0.6304(3) 0.40363(16) 0.80031(15)
H18 H 0.6547 0.4352 0.8164
C15 C 0.6223(3) 0.30886(16) 0.79911(15)
H19 H 0.6419 0.2758 0.8141
C16 C 0.5512(3) 0.50651(16) 0.75366(16)
C17 C 0.5157(3) 0.60306(15) 0.73422(15)
C18 C 0.4746(4) 0.63882(17) 0.69755(19)
H20 H 0.4494 0.6264 0.6656
C19 C 0.4715(4) 0.69280(19) 0.7089(2)
H21 H 0.4439 0.7172 0.6845
C20 C 0.5091(4) 0.71141(17) 0.75632(19)
H22 H 0.5039 0.7480 0.7640
C21 C 0.5552(3) 0.62342(16) 0.78099(16)
H23 H 0.5840 0.5997 0.8058
C22 C 0.7793(6) 0.6874(3) 0.8174(4)
H24 H 0.7965 0.6586 0.8412
H25 H 0.8346 0.7020 0.8082
H26 H 0.7386 0.6733 0.7883
C23 C 0.7154(5) 0.7759(3) 0.8046(3)
H27 H 0.6959 0.8072 0.8209
H28 H 0.6677 0.7665 0.7764
H29 H 0.7726 0.7840 0.7934
C24 C 0.6857(6) 0.6802(3) 0.9680(2)
H30 H 0.7192 0.6514 0.9555
H31 H 0.6255 0.6672 0.9722
H32 H 0.7205 0.6924 0.9995
C25 C 0.6194(6) 0.7679(3) 0.9527(2)
H33 H 0.6555 0.7814 0.9835
H34 H 0.5618 0.7528 0.9587
H35 H 0.6061 0.7971 0.9291
C26 C 0.4903(3) 0.62073(16) 0.89749(17)
H36 H 0.5432 0.5991 0.8990
C27 C 0.4108(3) 0.59819(16) 0.90968(17)
C28 C 0.3336(4) 0.63159(18) 0.90836(19)
H37 H 0.2794 0.6179 0.9171
C29 C 0.3373(4) 0.68478(19) 0.8942(2)
H38 H 0.2857 0.7073 0.8931
C30 C 0.4172(4) 0.70439(17) 0.88173(19)
H39 H 0.4191 0.7404 0.8718
C31 C 0.4721(4) 0.50466(16) 0.92583(18)
C32 C 0.4852(3) 0.40449(15) 0.92886(16)
C33 C 0.4337(3) 0.35775(15) 0.92914(17)
H40 H 0.3723 0.3595 0.9341
C34 C 0.4741(3) 0.30777(16) 0.92197(15)
C35 C 0.5657(3) 0.30659(16) 0.91463(15)
H41 H 0.5934 0.2735 0.9098
C36 C 0.5764(3) 0.40107(16) 0.92222(16)
H42 H 0.6123 0.4324 0.9230
C37 C 0.4519(3) 0.20926(16) 0.92213(16)
C38 C 0.3972(3) 0.11602(16) 0.90561(16)
C39 C 0.3257(4) 0.07886(18) 0.90883(18)
H43 H 0.2703 0.0907 0.9175
C40 C 0.3377(4) 0.02523(17) 0.89928(19)
H44 H 0.2903 0.0005 0.9013
C41 C 0.4193(4) 0.00794(17) 0.88677(18)
H45 H 0.4268 -0.0287 0.8801
C42 C 0.4785(3) 0.09629(16) 0.89283(16)
H46 H 0.5268 0.1202 0.8903
C43 C 0.8219(4) 0.3887(2) 0.99121(18)
H47 H 0.7593 0.3979 0.9947
H48 H 0.8481 0.4181 0.9753
H49 H 0.8596 0.3823 1.0236
C44 C 0.7818(4) 0.2943(2) 0.98689(19)
H50 H 0.8257 0.2857 1.0169
H51 H 0.7717 0.2627 0.9659
H52 H 0.7236 0.3055 0.9952
C45 C 0.9142(4) 0.3229(2) 0.95123(19)
H53 H 0.9605 0.3292 0.9813
H54 H 0.9144 0.2845 0.9436
C46 C 0.9398(4) 0.3535(2) 0.9104(2)
H55 H 0.9976 0.3392 0.9029
H56 H 0.9501 0.3913 0.9201
C47 C 0.8756(5) 0.3002(2) 0.8361(2)
H57 H 0.9355 0.3011 0.8263
H58 H 0.8269 0.2986 0.8070
H59 H 0.8721 0.2687 0.8564
C48 C 0.8742(4) 0.3976(2) 0.8327(2)
H60 H 0.8666 0.4305 0.8503
H61 H 0.8274 0.3958 0.8027
H62 H 0.9353 0.3971 0.8243
N1 N 0.6753(4) -0.00094(18) 0.93068(16)
N2 N 0.7291(3) -0.00236(18) 0.83787(19)
N3 N 0.5420(3) 0.04214(13) 0.79023(13)
N4 N 0.4911(3) 0.17046(13) 0.72203(13)
H63 H 0.4728 0.1787 0.6911
N5 N 0.5215(3) 0.26134(13) 0.73114(13)
H64 H 0.5026 0.2620 0.6993
N6 N 0.6569(3) 0.35517(12) 0.82050(13)
N7 N 0.5365(3) 0.45651(13) 0.73254(12)
H65 H 0.5059 0.4553 0.7023
N8 N 0.5132(3) 0.54765(13) 0.72285(12)
H66 H 0.4848 0.5386 0.6934
N9 N 0.5526(3) 0.67733(13) 0.79113(13)
N10 N 0.7309(3) 0.73019(15) 0.83968(15)
N11 N 0.6732(3) 0.72544(16) 0.93248(14)
N12 N 0.4937(3) 0.67308(13) 0.88342(13)
N13 N 0.4032(3) 0.54369(14) 0.92322(15)
H67 H 0.3509 0.5337 0.9306
N14 N 0.4397(3) 0.45413(13) 0.93417(15)
H68 H 0.3866 0.4524 0.9435
N15 N 0.6143(2) 0.35205(13) 0.91449(13)
N16 N 0.4189(3) 0.26104(13) 0.91991(14)
H69 H 0.3594 0.2654 0.9170
N17 N 0.3825(3) 0.17072(13) 0.91287(14)
H70 H 0.3258 0.1814 0.9115
N18 N 0.4890(3) 0.04299(13) 0.88390(12)
N19 N 0.8196(3) 0.33867(14) 0.96030(12)
N20 N 0.8639(3) 0.34985(13) 0.86507(13)
O1 O 0.5352(3) 0.19791(12) 0.93288(14)
O2 O 0.5519(3) 0.51419(12) 0.92240(16)
O3 O 0.5967(3) 0.51416(12) 0.79537(13)
O4 O 0.5281(3) 0.20787(12) 0.80039(12)
Pd1 Pd 0.60673(3) 0.01952(2) 0.86003(2)
Pd2 Pd 0.61039(3) 0.70215(2) 0.86104(2)
Pd3 Pd 0.73898(2) 0.35001(2) 0.89022(2)
C49 C 0.759(2) -0.0261(11) 0.9289(9)
H71 H 0.8077 -0.0054 0.9499
H72 H 0.7571 -0.0615 0.9443
C50 C 0.7839(13) -0.0334(10) 0.8859(8)
H73 H 0.7798 -0.0720 0.8787
H74 H 0.8495 -0.0234 0.8901
C51 C 0.7784(12) 0.7652(8) 0.8829(5)
H75 H 0.8454 0.7592 0.8879
H76 H 0.7668 0.8030 0.8740
C52 C 0.7525(19) 0.7566(9) 0.9232(9)
H77 H 0.7448 0.7924 0.9367
H78 H 0.8065 0.7407 0.9449
C57 C 0.2846(6) 0.3402(3) 0.6059(4)
H87 H 0.3254 0.3598 0.5879
H88 H 0.3227 0.3255 0.6361
C58 C 0.2133(8) 0.3783(4) 0.6194(4)
H89 H 0.1788 0.3600 0.6416
H90 H 0.2451 0.4092 0.6371
C59 C 0.1061(6) 0.3528(3) 0.5514(3)
H91 H 0.0608 0.3652 0.5228
H92 H 0.0727 0.3328 0.5731
C60 C 0.1747(6) 0.3166(3) 0.5346(3)
H93 H 0.1425 0.2860 0.5166
H94 H 0.2070 0.3362 0.5121
O5 O 0.1497(5) 0.3969(2) 0.5767(3)
O6 O 0.2408(4) 0.29756(17) 0.5763(2)
O7 O 0.8755(11) 0.4960(6) 0.9368(6)
O8 O 0.8329(11) 0.5951(5) 0.8937(6)
C61 C 0.7834(12) 0.5161(9) 0.9267(8)
H95 H 0.7709 0.5364 0.9552
H96 H 0.7391 0.4863 0.9202
C62 C 0.7740(15) 0.5524(8) 0.8817(7)
H97 H 0.7901 0.5326 0.8539
H98 H 0.7100 0.5652 0.8722
C63 C 0.9229(11) 0.5777(7) 0.9094(7)
H99 H 0.9624 0.6089 0.9200
H100 H 0.9445 0.5612 0.8814
C64 C 0.9341(13) 0.5379(7) 0.9510(7)
H101 H 0.9983 0.5251 0.9589
H102 H 0.9193 0.5549 0.9806
O11 O 0.1707(8) 0.1141(6) 0.7165(3)
O12 O 0.3121(7) 0.0777(5) 0.7843(3)
C69 C 0.2376(10) 0.1502(7) 0.7315(5)
H111 H 0.2135 0.1870 0.7279
H112 H 0.2883 0.1465 0.7133
C70 C 0.2354(9) 0.0411(6) 0.7717(4)
H113 H 0.1892 0.0475 0.7924
H114 H 0.2566 0.0038 0.7761
C71 C 0.1919(10) 0.0533(7) 0.7141(4)
H115 H 0.2368 0.0461 0.6929
H116 H 0.1355 0.0323 0.7026
C72 C 0.2683(10) 0.1348(6) 0.7858(4)
H117 H 0.2152 0.1337 0.8025
H118 H 0.3140 0.1604 0.8030
N21 N 0.4665(4) 0.2228(3) 0.60263(19)
O13 O 0.4232(4) 0.1851(2) 0.61760(18)
O14 O 0.4850(3) 0.2647(2) 0.62811(14)
O15 O 0.4911(4) 0.2202(2) 0.56234(18)
N22 N 0.3356(4) 0.7367(3) 0.5893(2)
O16 O 0.3126(4) 0.6933(2) 0.6063(2)
O17 O 0.2748(4) 0.7695(3) 0.5739(2)
O18 O 0.4170(4) 0.7476(3) 0.5912(2)
N23 N 0.3121(5) 0.9715(3) 0.5780(3)
O19 O 0.3924(4) 0.9559(3) 0.5892(3)
O20 O 0.2483(4) 0.9409(3) 0.5561(3)
O21 O 0.2912(4) 1.0174(3) 0.5876(3)
N24 N 0.7303(4) 0.1809(2) 0.8611(2)
O22 O 0.7052(4) 0.13730(16) 0.8795(2)
O23 O 0.7344(3) 0.22371(15) 0.88500(16)
O24 O 0.7439(4) 0.1809(2) 0.8172(2)
N25 N 0.9770(4) 0.3575(2) 0.6784(3)
O25 O 0.9937(5) 0.31346(19) 0.6645(2)
O26 O 0.9660(6) 0.3609(2) 0.7247(3)
O27 O 0.9801(6) 0.3981(2) 0.6599(3)
N26 N 0.4126(4) 0.4845(3) 0.60743(19)
O28 O 0.4448(6) 0.4480(3) 0.6334(2)
O29 O 0.4182(7) 0.5269(3) 0.6258(2)
O30 O 0.3702(4) 0.4783(2) 0.56496(17)
C53? C 0.7789(19) -0.0090(11) 0.9243(8)
H79? H 0.8193 0.0110 0.9506
H80? H 0.7945 -0.0472 0.9292
C54? C 0.7984(9) 0.0061(9) 0.8815(6)
H81? H 0.8547 -0.0129 0.8771
H82? H 0.8131 0.0445 0.8836
C55? C 0.7990(10) 0.7335(9) 0.8864(6)
H83? H 0.8375 0.7011 0.8883
H84? H 0.8397 0.7640 0.8832
C56? C 0.7727(17) 0.7388(10) 0.9319(10)
H85? H 0.7843 0.7760 0.9433
H86? H 0.8123 0.7155 0.9557
O9? O 0.8810(17) 0.4964(9) 0.9114(10)
O10? O 0.8180(11) 0.5992(6) 0.9261(10)
C65? C 0.7890(18) 0.5079(10) 0.8933(13)
H103? H 0.7512 0.4772 0.8999
H104? H 0.7799 0.5123 0.8574
C66? C 0.7553(13) 0.5575(9) 0.9152(14)
H105? H 0.7009 0.5710 0.8921
H106? H 0.7348 0.5473 0.9456
C67? C 0.9027(12) 0.5844(8) 0.9489(11)
H107? H 0.9004 0.5704 0.9818
H108? H 0.9443 0.6156 0.9527
C68? C 0.9399(17) 0.5404(10) 0.9178(12)
H109? H 0.9451 0.5551 0.8855
H110? H 1.0019 0.5290 0.9346
loop_
_geom_bond_atom_site_label_1
_geom_bond_atom_site_label_2
_geom_bond_site_symmetry_1
_geom_bond_site_symmetry_2
C1 H1 1_555 1_555
H2 C1 1_555 1_555
H3 C1 1_555 1_555
C2 H4 1_555 1_555
H5 C2 1_555 1_555
H6 C2 1_555 1_555
C3 H7 1_555 1_555
H8 C3 1_555 1_555
H9 C3 1_555 1_555
C4 H10 1_555 1_555
H11 C4 1_555 1_555
H12 C4 1_555 1_555
C5 H13 1_555 1_555
C6 C5 1_555 1_555
H14 C6 1_555 1_555
C7 C6 1_555 1_555
H15 C7 1_555 1_555
C8 C7 1_555 1_555
C9 C8 1_555 1_555
H16 C9 1_555 1_555
C10 N4 1_555 1_555
C11 C12 1_555 1_555
C12 H17 1_555 1_555
C13 C12 1_555 1_555
C14 C13 1_555 1_555
H18 C14 1_555 1_555
C15 C11 1_555 1_555
H19 C15 1_555 1_555
C16 N7 1_555 1_555
C17 C18 1_555 1_555
C18 H20 1_555 1_555
C19 C18 1_555 1_555
H21 C19 1_555 1_555
C20 C19 1_555 1_555
H22 C20 1_555 1_555
C21 C17 1_555 1_555
H23 C21 1_555 1_555
C22 H24 1_555 1_555
H25 C22 1_555 1_555
H26 C22 1_555 1_555
C23 H27 1_555 1_555
H28 C23 1_555 1_555
H29 C23 1_555 1_555
C24 H30 1_555 1_555
H31 C24 1_555 1_555
H32 C24 1_555 1_555
C25 H33 1_555 1_555
H34 C25 1_555 1_555
H35 C25 1_555 1_555
C26 H36 1_555 1_555
C27 C26 1_555 1_555
C28 C27 1_555 1_555
H37 C28 1_555 1_555
C29 C28 1_555 1_555
H38 C29 1_555 1_555
C30 C29 1_555 1_555
H39 C30 1_555 1_555
C31 N13 1_555 1_555
C32 C33 1_555 1_555
C33 H40 1_555 1_555
C34 C33 1_555 1_555
C35 C34 1_555 1_555
H41 C35 1_555 1_555
C36 C32 1_555 1_555
H42 C36 1_555 1_555
C37 N16 1_555 1_555
C38 C39 1_555 1_555
C39 H43 1_555 1_555
C40 C39 1_555 1_555
H44 C40 1_555 1_555
C41 C40 1_555 1_555
H45 C41 1_555 1_555
C42 C38 1_555 1_555
H46 C42 1_555 1_555
C43 H47 1_555 1_555
H48 C43 1_555 1_555
H49 C43 1_555 1_555
C44 H50 1_555 1_555
H51 C44 1_555 1_555
H52 C44 1_555 1_555
C45 H53 1_555 1_555
H54 C45 1_555 1_555
C46 C45 1_555 1_555
H55 C46 1_555 1_555
H56 C46 1_555 1_555
C47 H57 1_555 1_555
H58 C47 1_555 1_555
H59 C47 1_555 1_555
C48 H60 1_555 1_555
H61 C48 1_555 1_555
H62 C48 1_555 1_555
N1 C1 1_555 1_555
N2 C3 1_555 1_555
N3 C5 1_555 1_555
N4 C8 1_555 1_555
H63 N4 1_555 1_555
N5 C10 1_555 1_555
H64 N5 1_555 1_555
N6 C14 1_555 1_555
N7 C13 1_555 1_555
H65 N7 1_555 1_555
N8 C16 1_555 1_555
H66 N8 1_555 1_555
N9 C20 1_555 1_555
N10 C22 1_555 1_555
N11 C24 1_555 1_555
N12 C26 1_555 1_555
N13 C27 1_555 1_555
H67 N13 1_555 1_555
N14 C31 1_555 1_555
H68 N14 1_555 1_555
N15 C35 1_555 1_555
N16 C34 1_555 1_555
H69 N16 1_555 1_555
N17 C37 1_555 1_555
H70 N17 1_555 1_555
N18 C41 1_555 1_555
N19 C43 1_555 1_555
N20 C46 1_555 1_555
O1 C37 1_555 1_555
O2 C31 1_555 1_555
O3 C16 1_555 1_555
O4 C10 1_555 1_555
Pd1 N1 1_555 1_555
Pd2 N9 1_555 1_555
Pd3 N6 1_555 1_555
C49 N1 1_555 1_555
H71 C49 1_555 1_555
H72 C49 1_555 1_555
C50 N2 1_555 1_555
H73 C50 1_555 1_555
H74 C50 1_555 1_555
C51 N10 1_555 1_555
H75 C51 1_555 1_555
H76 C51 1_555 1_555
C52 N11 1_555 1_555
H77 C52 1_555 1_555
H78 C52 1_555 1_555
C57 H87 1_555 1_555
H88 C57 1_555 1_555
C58 C57 1_555 1_555
H89 C58 1_555 1_555
H90 C58 1_555 1_555
C59 H91 1_555 1_555
H92 C59 1_555 1_555
C60 C59 1_555 1_555
H93 C60 1_555 1_555
H94 C60 1_555 1_555
O5 C58 1_555 1_555
O6 C57 1_555 1_555
O7 C61 1_555 1_555
O8 C62 1_555 1_555
C61 H95 1_555 1_555
H96 C61 1_555 1_555
C62 C61 1_555 1_555
H97 C62 1_555 1_555
H98 C62 1_555 1_555
C63 O8 1_555 1_555
H99 C63 1_555 1_555
H100 C63 1_555 1_555
C64 O7 1_555 1_555
H101 C64 1_555 1_555
H102 C64 1_555 1_555
O11 C69 1_555 1_555
O12 C70 1_555 1_555
C69 H111 1_555 1_555
H112 C69 1_555 1_555
C70 H113 1_555 1_555
H114 C70 1_555 1_555
C71 O11 1_555 1_555
H115 C71 1_555 1_555
H116 C71 1_555 1_555
C72 O12 1_555 1_555
H117 C72 1_555 1_555
H118 C72 1_555 1_555
N21 O13 1_555 1_555
O14 N21 1_555 1_555
O15 N21 1_555 1_555
N22 O16 1_555 1_555
O17 N22 1_555 1_555
O18 N22 1_555 1_555
N23 O19 1_555 1_555
O20 N23 1_555 1_555
O21 N23 1_555 1_555
N24 O22 1_555 1_555
O23 N24 1_555 1_555
O24 N24 1_555 1_555
N25 O25 1_555 1_555
O26 N25 1_555 1_555
O27 N25 1_555 1_555
N26 O28 1_555 1_555
O29 N26 1_555 1_555
O30 N26 1_555 1_555
C2 N1 1_555 1_555
C4 N2 1_555 1_555
C9 N3 1_555 1_555
C11 N5 1_555 1_555
C15 N6 1_555 1_555
C17 N8 1_555 1_555
C21 N9 1_555 1_555
C23 N10 1_555 1_555
C25 N11 1_555 1_555
C30 N12 1_555 1_555
C32 N14 1_555 1_555
C36 N15 1_555 1_555
C38 N17 1_555 1_555
C42 N18 1_555 1_555
C44 N19 1_555 1_555
C45 N19 1_555 1_555
C47 N20 1_555 1_555
C48 N20 1_555 1_555
N2 Pd1 1_555 1_555
N3 Pd1 1_555 1_555
N10 Pd2 1_555 1_555
N11 Pd2 1_555 1_555
N12 Pd2 1_555 1_555
N15 Pd3 1_555 1_555
N18 Pd1 1_555 1_555
N19 Pd3 1_555 1_555
N20 Pd3 1_555 1_555
C49 C50 1_555 1_555
C51 C52 1_555 1_555
C59 O5 1_555 1_555
C60 O6 1_555 1_555
C63 C64 1_555 1_555
C69 C72 1_555 1_555
C70 C71 1_555 1_555

#END
