
#######################################################################
#
#                 Cambridge Crystallographic Data Centre
#                                CCDC 
#
#######################################################################
#
# If this CIF has been generated from an entry in the Cambridge 
# Structural Database, then it will include bibliographic, chemical, 
# crystal, experimental, refinement or atomic coordinate data resulting 
# from the CCDC's data processing and validation procedures.
#
#######################################################################

data_ZAYDEL
_chemical_formula_moiety         
'C146 H116 N12 O2 Pd2 4+,4(B1 F4 1-),1.5(C6 H14 O1),3(C2 H3 N1)'
_chemical_name_systematic        
'bis(\m-9-hexyl-3,6-bis[(pyridin-3-yl)ethynyl]-9H-carbazole)-bis(\m-10-hexyl-2,7-bis[(isoquinolin-8-yl)ethynyl]acridin-9(10H)-one)-di-palladium(ii) tetrakis(tetrafluoroborate) diisopropyl ether acetonitrile unknown solvate'
_symmetry_cell_setting           monoclinic
_symmetry_space_group_name_H-M   'C c'
_symmetry_Int_Tables_number      9
_space_group_name_Hall           'C -2yc'
loop_
_symmetry_equiv_pos_site_id
_symmetry_equiv_pos_as_xyz
1 x,y,z
2 x,-y,1/2+z
3 1/2+x,1/2+y,z
4 1/2+x,1/2-y,1/2+z
_cell_length_a                   32.1429(8)
_cell_length_b                   20.0109(5)
_cell_length_c                   27.5787(11)
_cell_angle_alpha                90
_cell_angle_beta                 118.968(3)
_cell_angle_gamma                90
_cell_volume                     15519.5
_exptl_crystal_colour            colorless
_exptl_crystal_description       plate
_cell_formula_units_Z            4
_exptl_crystal_recrystallization_method 'di-isopropyl ether/d-acetonitrile'
loop_
_atom_site_label
_atom_site_type_symbol
_atom_site_fract_x
_atom_site_fract_y
_atom_site_fract_z
Pd1 Pd 0.40099(2) 0.24008(2) 0.68663(2)
Pd2 Pd 0.71132(2) 0.26413(3) 0.41680(2)
C1 C 0.5445(2) 0.2810(4) 0.8071(3)
C2 C 0.5025(2) 0.2703(4) 0.7587(3)
H1 H 0.501385 0.277806 0.724084
N1 N 0.4631(2) 0.2496(3) 0.7597(3)
C3 C 0.4641(3) 0.2376(5) 0.8079(3)
H2 H 0.436202 0.222096 0.807917
C4 C 0.5050(3) 0.2472(5) 0.8576(4)
H3 H 0.505314 0.237935 0.891553
C5 C 0.5454(3) 0.2706(5) 0.8576(4)
H4 H 0.573483 0.279454 0.891538
C6 C 0.5864(2) 0.3034(4) 0.8060(3)
C7 C 0.6250(2) 0.3212(4) 0.8127(3)
C8 C 0.6725(2) 0.3419(3) 0.8284(3)
C9 C 0.7005(2) 0.3652(4) 0.8826(3)
H5 H 0.686683 0.368254 0.906083
C10 C 0.7474(3) 0.3840(4) 0.9032(3)
H6 H 0.766147 0.398516 0.940448
C11 C 0.7656(2) 0.3805(3) 0.8671(3)
C12 C 0.7376(2) 0.3597(3) 0.8114(3)
C13 C 0.6910(2) 0.3397(3) 0.7923(3)
H7 H 0.672149 0.324858 0.755151
N2 N 0.8110(2) 0.3957(3) 0.8772(2)
C14 C 0.8130(2) 0.3867(3) 0.8287(3)
C15 C 0.7687(2) 0.3643(3) 0.7865(3)
C16 C 0.8513(3) 0.3970(5) 0.8192(3)
H8 H 0.881377 0.411093 0.848037
C17 C 0.8440(3) 0.3860(4) 0.7664(3)
H9 H 0.869376 0.393348 0.758658
C18 C 0.8003(3) 0.3644(4) 0.7241(3)
C19 C 0.7619(3) 0.3532(4) 0.7335(3)
H10 H 0.732120 0.338367 0.704528
C20 C 0.7969(3) 0.3526(4) 0.6709(3)
C21 C 0.7990(3) 0.3430(4) 0.6294(3)
C22 C 0.8055(3) 0.3275(4) 0.5828(3)
C23 C 0.7669(3) 0.3108(4) 0.5321(3)
H11 H 0.736016 0.312536 0.528527
N3 N 0.7711(2) 0.2924(3) 0.4883(3)
C24 C 0.8151(2) 0.2915(4) 0.4938(3)
H12 H 0.818502 0.278194 0.462917
C25 C 0.8549(3) 0.3087(5) 0.5416(3)
H13 H 0.885136 0.308745 0.543307
C26 C 0.8506(3) 0.3261(4) 0.5873(3)
H14 H 0.877896 0.337011 0.621370
C27 C 0.8515(3) 0.4141(5) 0.9318(4)
H15 H 0.881482 0.400416 0.932643
H16 H 0.848923 0.388745 0.960986
C28 C 0.8545(5) 0.4873(6) 0.9452(6)
H17 H 0.822003 0.504327 0.933209
H18 H 0.873243 0.493037 0.985861
C29 C 0.8763(6) 0.5279(7) 0.9187(7)
H19 H 0.858795 0.519660 0.878244
H20 H 0.909439 0.512678 0.932585
C30 C 0.8767(6) 0.6013(7) 0.9286(7)
H21 H 0.843458 0.616136 0.914857
H22 H 0.894047 0.609177 0.969078
C31 C 0.8981(6) 0.6439(8) 0.9029(7)
H23 H 0.881919 0.633631 0.862732
H24 H 0.931731 0.630239 0.918171
C32 C 0.8973(7) 0.7178(8) 0.9088(8)
H25 H 0.912676 0.739174 0.889673
H26 H 0.864233 0.733112 0.892459
H27 H 0.914305 0.729702 0.948188
C33 C 0.5667(2) 0.2370(4) 0.2933(3)
C34 C 0.6087(3) 0.2511(4) 0.3417(3)
H28 H 0.606692 0.271893 0.371452
N4 N 0.6520(2) 0.2367(3) 0.3483(3)
C35 C 0.6541(3) 0.2083(5) 0.3055(3)
H29 H 0.684490 0.197726 0.309765
C36 C 0.6146(3) 0.1937(5) 0.2557(3)
H30 H 0.617874 0.173539 0.226557
C37 C 0.5704(3) 0.2088(5) 0.2490(3)
H31 H 0.542610 0.200191 0.214734
C38 C 0.5207(2) 0.2538(4) 0.2870(4)
C39 C 0.4805(2) 0.2629(4) 0.2778(3)
C40 C 0.4314(2) 0.2746(4) 0.2617(3)
C41 C 0.4003(2) 0.2872(4) 0.2050(3)
H32 H 0.412389 0.287358 0.179681
C42 C 0.3530(2) 0.2991(4) 0.1861(3)
H33 H 0.332116 0.307387 0.147900
C43 C 0.3362(2) 0.2987(3) 0.2245(2)
C44 C 0.3665(2) 0.2856(3) 0.2810(3)
C45 C 0.4148(2) 0.2737(4) 0.2999(3)
H34 H 0.435796 0.265154 0.338036
N5 N 0.29064(18) 0.3110(3) 0.2151(2)
C46 C 0.2907(2) 0.3071(3) 0.2654(2)
C47 C 0.3368(2) 0.2900(3) 0.3076(2)
C48 C 0.2530(3) 0.3157(4) 0.2761(3)
H35 H 0.222413 0.328135 0.247353
C49 C 0.2612(3) 0.3056(4) 0.3295(3)
H36 H 0.235941 0.311515 0.337767
C50 C 0.3066(2) 0.2867(4) 0.3719(3)
C51 C 0.3445(2) 0.2793(4) 0.3611(3)
H37 H 0.375189 0.267204 0.389862
C52 C 0.3107(3) 0.2725(4) 0.4253(3)
C53 C 0.3078(3) 0.2611(4) 0.4663(3)
C54 C 0.3033(3) 0.2441(4) 0.5140(3)
C55 C 0.3425(3) 0.2487(3) 0.5667(3)
H38 H 0.371809 0.264213 0.570283
N6 N 0.3404(2) 0.2321(3) 0.6126(3)
C56 C 0.2989(3) 0.2119(4) 0.6082(3)
H39 H 0.297622 0.199844 0.640750
C57 C 0.2580(3) 0.2081(5) 0.5574(3)
H40 H 0.228814 0.194570 0.555162
C58 C 0.2602(3) 0.2243(4) 0.5101(3)
H41 H 0.232332 0.222069 0.474957
C59 C 0.2483(3) 0.3216(4) 0.1621(3)
H42 H 0.220952 0.299806 0.162726
H43 H 0.252812 0.300032 0.132665
C60 C 0.2368(3) 0.3958(4) 0.1479(3)
H44 H 0.203320 0.400042 0.118461
H45 H 0.240257 0.419625 0.181065
C61 C 0.2687(3) 0.4288(4) 0.1284(3)
H46 H 0.302275 0.422356 0.157116
H47 H 0.264127 0.406063 0.094284
C62 C 0.2596(3) 0.5023(4) 0.1167(3)
H48 H 0.267009 0.525545 0.151691
H49 H 0.225390 0.509034 0.090612
C63 C 0.2883(3) 0.5343(4) 0.0925(4)
H50 H 0.322508 0.525822 0.117666
H51 H 0.279690 0.512866 0.056508
C64 C 0.2804(4) 0.6084(4) 0.0839(5)
H52 H 0.299819 0.626138 0.068212
H53 H 0.246779 0.617192 0.058275
H54 H 0.289625 0.630156 0.119473
N7 N 0.4735(2) 0.4668(3) 0.4177(2)
C65 C 0.4726(2) 0.4069(3) 0.4435(3)
C66 C 0.4482(3) 0.4024(3) 0.4742(3)
H55 H 0.432042 0.440505 0.477408
C67 C 0.4475(3) 0.3441(3) 0.4995(3)
H56 H 0.430961 0.342268 0.520190
C68 C 0.4708(2) 0.2865(3) 0.4954(3)
C69 C 0.4951(2) 0.2905(3) 0.4654(3)
H57 H 0.511123 0.252227 0.462345
C70 C 0.4962(2) 0.3501(3) 0.4398(3)
O1 O 0.5477(2) 0.3033(3) 0.4093(2)
C71 C 0.5250(2) 0.3517(3) 0.4112(3)
C72 C 0.5256(2) 0.4166(3) 0.3867(3)
C73 C 0.5521(2) 0.4227(3) 0.3593(3)
H58 H 0.567467 0.384208 0.355242
C74 C 0.5569(2) 0.4830(3) 0.3379(3)
C75 C 0.5333(3) 0.5384(4) 0.3434(3)
H59 H 0.536047 0.580285 0.328965
C76 C 0.5060(3) 0.5337(4) 0.3697(3)
H60 H 0.490569 0.572348 0.373368
C77 C 0.5008(2) 0.4726(3) 0.3909(3)
C78 C 0.4702(3) 0.2252(3) 0.5220(3)
C79 C 0.4710(3) 0.1734(3) 0.5434(3)
C80 C 0.4710(3) 0.1106(3) 0.5682(3)
C81 C 0.4563(3) 0.1066(3) 0.6096(3)
C82 C 0.4421(3) 0.1635(3) 0.6277(3)
H61 H 0.442830 0.205823 0.612572
N8 N 0.4279(2) 0.1599(3) 0.6653(2)
C83 C 0.4274(3) 0.0996(3) 0.6879(4)
H62 H 0.416378 0.097472 0.714220
C84 C 0.4420(4) 0.0425(4) 0.6744(4)
H63 H 0.442770 0.001685 0.692457
C85 C 0.4561(3) 0.0441(3) 0.6331(3)
C86 C 0.4703(4) -0.0141(4) 0.6149(4)
H64 H 0.470171 -0.056686 0.630028
C87 C 0.4841(4) -0.0081(4) 0.5757(4)
H65 H 0.493835 -0.046928 0.564062
C88 C 0.4845(3) 0.0530(3) 0.5520(4)
H66 H 0.494142 0.055137 0.524493
C89 C 0.5892(3) 0.4865(4) 0.3158(3)
C90 C 0.6178(2) 0.4847(4) 0.2995(3)
C91 C 0.6532(2) 0.4780(3) 0.2828(3)
C92 C 0.6890(2) 0.4277(3) 0.3082(2)
C93 C 0.6901(3) 0.3826(3) 0.3482(3)
H67 H 0.667258 0.387820 0.360421
N9 N 0.7213(2) 0.3334(3) 0.3694(2)
C94 C 0.7543(3) 0.3255(4) 0.3524(3)
H68 H 0.775813 0.288991 0.366890
C95 C 0.7580(3) 0.3675(4) 0.3155(3)
H69 H 0.782442 0.361308 0.305910
C96 C 0.7247(2) 0.4207(3) 0.2917(3)
C97 C 0.7243(3) 0.4642(4) 0.2512(3)
H70 H 0.748140 0.460875 0.240407
C98 C 0.6893(3) 0.5111(4) 0.2277(3)
H71 H 0.689132 0.539854 0.200189
C99 C 0.6537(3) 0.5184(3) 0.2424(3)
H72 H 0.629750 0.551331 0.224683
C100 C 0.4472(3) 0.5252(4) 0.4217(3)
H73 H 0.417921 0.509768 0.421710
H74 H 0.437623 0.554144 0.388872
C101 C 0.4771(3) 0.5652(4) 0.4739(4)
H75 H 0.502685 0.588242 0.470053
H76 H 0.492456 0.534169 0.505669
C102 C 0.4485(4) 0.6176(5) 0.4864(5)
H77 H 0.426408 0.640691 0.451548
H78 H 0.470696 0.651500 0.512097
C103 C 0.4193(4) 0.5863(5) 0.5128(5)
H79 H 0.394689 0.556174 0.485409
H80 H 0.440850 0.559009 0.545279
C104 C 0.3948(4) 0.6393(6) 0.5314(5)
H81 H 0.419728 0.668004 0.559933
H82 H 0.374798 0.668115 0.499184
C105 C 0.3657(5) 0.6131(7) 0.5534(5)
H83 H 0.351759 0.650195 0.563914
H84 H 0.340161 0.585747 0.525109
H85 H 0.385198 0.585636 0.586003
N10 N 0.5671(2) 0.5427(3) 0.6150(2)
C106 C 0.5394(2) 0.5408(3) 0.6415(3)
C107 C 0.5267(3) 0.5999(3) 0.6587(3)
H86 H 0.537829 0.641787 0.653356
C108 C 0.4980(3) 0.5976(3) 0.6832(3)
H87 H 0.489722 0.637906 0.694596
C109 C 0.4812(2) 0.5373(3) 0.6914(3)
C110 C 0.4953(2) 0.4789(3) 0.6766(3)
H88 H 0.485324 0.437086 0.683867
C111 C 0.5237(2) 0.4802(3) 0.6513(3)
O2 O 0.52243(19) 0.3618(2) 0.6439(2)
C112 C 0.5357(2) 0.4162(3) 0.6360(3)
C113 C 0.5659(2) 0.4219(3) 0.6098(3)
C114 C 0.5788(2) 0.3630(3) 0.5946(3)
H89 H 0.567950 0.321662 0.601210
C115 C 0.6076(2) 0.3633(3) 0.5698(3)
C116 C 0.6243(3) 0.4240(3) 0.5625(3)
H90 H 0.645132 0.424753 0.547122
C117 C 0.6117(3) 0.4837(3) 0.5771(3)
H91 H 0.623565 0.524704 0.571284
C118 C 0.5811(2) 0.4836(3) 0.6006(3)
C119 C 0.4488(2) 0.5311(4) 0.7135(3)
C120 C 0.4227(2) 0.5157(3) 0.7311(3)
C121 C 0.3899(2) 0.4958(3) 0.7498(3)
C122 C 0.3738(2) 0.4277(3) 0.7427(3)
C123 C 0.3885(2) 0.3775(3) 0.7186(3)
H92 H 0.409795 0.389012 0.705176
N11 N 0.37394(19) 0.3149(3) 0.7138(2)
C124 C 0.3433(2) 0.2974(3) 0.7329(3)
H93 H 0.333577 0.252075 0.730256
C125 C 0.3263(2) 0.3430(3) 0.7555(3)
H94 H 0.304407 0.329395 0.767436
C126 C 0.3409(2) 0.4101(3) 0.7615(3)
C127 C 0.3248(3) 0.4587(3) 0.7856(3)
H95 H 0.302583 0.446824 0.797580
C128 C 0.3410(3) 0.5226(4) 0.7915(3)
H96 H 0.329578 0.555196 0.807256
C129 C 0.3743(3) 0.5414(3) 0.7749(3)
H97 H 0.386117 0.585884 0.780992
C130 C 0.6176(3) 0.2994(3) 0.5533(3)
C131 C 0.6206(3) 0.2431(3) 0.5413(3)
C132 C 0.6231(2) 0.1747(3) 0.5274(3)
C133 C 0.6501(2) 0.1573(3) 0.5006(3)
C134 C 0.6704(3) 0.2069(3) 0.4823(3)
H98 H 0.665865 0.252539 0.488013
N12 N 0.6958(2) 0.1921(3) 0.4574(2)
C135 C 0.7030(3) 0.1271(3) 0.4500(3)
H99 H 0.722428 0.117069 0.433723
C136 C 0.6841(3) 0.0760(3) 0.4645(3)
H100 H 0.689751 0.031116 0.457916
C137 C 0.6556(2) 0.0899(3) 0.4900(3)
C138 C 0.6313(3) 0.0401(4) 0.5032(3)
H101 H 0.634185 -0.005623 0.495853
C139 C 0.6040(3) 0.0578(4) 0.5263(4)
H102 H 0.587250 0.024189 0.534222
C140 C 0.5998(3) 0.1243(3) 0.5387(3)
H103 H 0.580701 0.134996 0.555247
C141 C 0.5809(3) 0.6084(3) 0.6024(3)
H104 H 0.555157 0.641024 0.594259
H105 H 0.584422 0.604223 0.568783
C142 C 0.6273(3) 0.6347(4) 0.6501(3)
H106 H 0.654245 0.607537 0.653258
H107 H 0.626312 0.630721 0.685277
C143 C 0.6349(3) 0.7079(4) 0.6403(3)
H108 H 0.635775 0.711480 0.604969
H109 H 0.607530 0.734609 0.636490
C144 C 0.6807(4) 0.7373(4) 0.6869(4)
H110 H 0.708213 0.712744 0.688969
H111 H 0.680813 0.731102 0.722584
C145 C 0.6862(3) 0.8130(5) 0.6784(4)
H112 H 0.657060 0.836995 0.671885
H113 H 0.713223 0.831406 0.712379
C146 C 0.6947(5) 0.8241(6) 0.6306(5)
H114 H 0.698071 0.872046 0.626214
H115 H 0.723883 0.800943 0.637212
H116 H 0.667771 0.806528 0.596755
O3 O 0.1391(3) 0.4018(4) 0.2173(4)
C147 C 0.1422(5) 0.4708(6) 0.2158(7)
H117 H 0.123654 0.485459 0.234418
C148 C 0.1910(5) 0.4909(8) 0.2563(9)
H118 H 0.193819 0.539606 0.255907
H119 H 0.197982 0.476285 0.293446
H120 H 0.213529 0.470077 0.246583
C149 C 0.1188(8) 0.5080(8) 0.1634(7)
H121 H 0.125022 0.555902 0.170900
H122 H 0.131350 0.493078 0.139150
H123 H 0.084450 0.499959 0.145162
C150 C 0.0976(4) 0.3646(5) 0.1906(5)
H124 H 0.074680 0.388704 0.156117
C151 C 0.1113(7) 0.3010(6) 0.1747(5)
H125 H 0.083232 0.272390 0.155564
H126 H 0.124595 0.310306 0.150076
H127 H 0.135230 0.278216 0.208113
C152 C 0.0750(8) 0.3538(13) 0.2257(10)
H128 H 0.045944 0.327459 0.205127
H129 H 0.097092 0.329811 0.259380
H130 H 0.067089 0.397126 0.235692
O4 O 0.1313(6) 0.4431(7) 0.3884(6)
C153 C 0.0980(8) 0.4598(10) 0.3316(8)
H134 H 0.104799 0.434004 0.305153
C154 C 0.0509(9) 0.4402(15) 0.3265(16)
H135 H 0.025522 0.449734 0.288865
H136 H 0.051144 0.392403 0.334217
H137 H 0.045446 0.465861 0.353192
C155 C 0.0999(15) 0.5335(10) 0.3236(11)
H138 H 0.077382 0.545228 0.285143
H139 H 0.091361 0.557453 0.348580
H140 H 0.132114 0.546194 0.331915
C156 C 0.1493(8) 0.3753(8) 0.4007(10)
H141 H 0.141348 0.345982 0.368016
C157 C 0.1987(8) 0.4042(15) 0.4289(12)
H142 H 0.201804 0.436672 0.404264
H143 H 0.221974 0.368337 0.437688
H144 H 0.204406 0.426619 0.463239
C158 C 0.1485(12) 0.3426(18) 0.4489(14)
H145 H 0.161433 0.297225 0.453513
H146 H 0.167938 0.368558 0.482568
H147 H 0.115730 0.340465 0.442246
B1 B 0.4935(4) 0.1972(6) 0.1023(5)
F1 F 0.5085(3) 0.2588(3) 0.1001(4)
F2 F 0.46201(20) 0.1725(3) 0.0510(2)
F3 F 0.5323(2) 0.1556(3) 0.1278(2)
F4 F 0.4692(2) 0.1971(5) 0.1336(3)
B2 B 0.6277(4) 0.6563(6) 0.4953(4)
F5 F 0.6275(5) 0.7235(4) 0.5061(4)
F6 F 0.6444(2) 0.6538(3) 0.4582(3)
F7 F 0.6580(2) 0.6243(3) 0.5443(2)
F8 F 0.5839(3) 0.6337(7) 0.4755(3)
B3 B 0.3337(6) 0.1037(6) 0.7401(8)
F9 F 0.3311(5) 0.0640(6) 0.6981(7)
F10 F 0.2960(2) 0.1465(3) 0.7196(3)
F11 F 0.3356(3) 0.0668(4) 0.7819(5)
F12 F 0.3758(2) 0.1424(3) 0.7586(3)
B4 B 0.7821(4) 0.1318(6) 0.3742(4)
F13 F 0.7832(2) 0.1741(3) 0.4129(3)
F14 F 0.7644(3) 0.1584(4) 0.3232(3)
F15 F 0.8219(3) 0.0950(4) 0.3915(3)
F16 F 0.7486(3) 0.0829(4) 0.3687(4)
N13 N 0.4705(8) 0.1080(14) 0.4230(8)
C159 C 0.4925(8) 0.1164(14) 0.3981(12)
C160 C 0.5266(7) 0.1389(9) 0.3868(8)
H148 H 0.529259 0.187511 0.391241
H149 H 0.518057 0.127173 0.348585
H150 H 0.557092 0.118151 0.412334
N14 N 0.6631(3) 0.3728(4) 0.4563(3)
C161 C 0.6626(4) 0.4322(5) 0.4572(4)
C162 C 0.6602(6) 0.5025(6) 0.4622(6)
H151 H 0.680152 0.524463 0.449076
H152 H 0.671683 0.514109 0.501183
H153 H 0.627236 0.517417 0.439935
N15 N 0.3690(3) 0.4171(5) 0.5400(4)
C163 C 0.3419(4) 0.4330(5) 0.4962(5)
C164 C 0.3062(5) 0.4507(6) 0.4416(5)
H154 H 0.320480 0.453892 0.417320
H155 H 0.292263 0.493842 0.442612
H156 H 0.281297 0.416382 0.427297
loop_
_geom_bond_atom_site_label_1
_geom_bond_atom_site_label_2
_geom_bond_site_symmetry_1
_geom_bond_site_symmetry_2
Pd1 N1 1_555 1_555
Pd2 N3 1_555 1_555
C1 C2 1_555 1_555
C2 H1 1_555 1_555
N1 C2 1_555 1_555
C3 N1 1_555 1_555
H2 C3 1_555 1_555
C4 C3 1_555 1_555
H3 C4 1_555 1_555
C5 C1 1_555 1_555
H4 C5 1_555 1_555
C6 C1 1_555 1_555
C7 C6 1_555 1_555
C8 C7 1_555 1_555
C9 C8 1_555 1_555
H5 C9 1_555 1_555
C10 C9 1_555 1_555
H6 C10 1_555 1_555
C11 C10 1_555 1_555
C12 C11 1_555 1_555
C13 C8 1_555 1_555
H7 C13 1_555 1_555
N2 C11 1_555 1_555
C14 N2 1_555 1_555
C15 C12 1_555 1_555
C16 C14 1_555 1_555
H8 C16 1_555 1_555
C17 C16 1_555 1_555
H9 C17 1_555 1_555
C18 C17 1_555 1_555
C19 C15 1_555 1_555
H10 C19 1_555 1_555
C20 C18 1_555 1_555
C21 C20 1_555 1_555
C22 C21 1_555 1_555
C23 C22 1_555 1_555
H11 C23 1_555 1_555
N3 C23 1_555 1_555
C24 N3 1_555 1_555
H12 C24 1_555 1_555
C25 C24 1_555 1_555
H13 C25 1_555 1_555
C26 C22 1_555 1_555
H14 C26 1_555 1_555
C27 N2 1_555 1_555
H15 C27 1_555 1_555
H16 C27 1_555 1_555
C28 C27 1_555 1_555
H17 C28 1_555 1_555
H18 C28 1_555 1_555
C29 C28 1_555 1_555
H19 C29 1_555 1_555
H20 C29 1_555 1_555
C30 C29 1_555 1_555
H21 C30 1_555 1_555
H22 C30 1_555 1_555
C31 C30 1_555 1_555
H23 C31 1_555 1_555
H24 C31 1_555 1_555
C32 C31 1_555 1_555
H25 C32 1_555 1_555
H26 C32 1_555 1_555
H27 C32 1_555 1_555
C33 C34 1_555 1_555
C34 H28 1_555 1_555
N4 Pd2 1_555 1_555
C35 N4 1_555 1_555
H29 C35 1_555 1_555
C36 C35 1_555 1_555
H30 C36 1_555 1_555
C37 C33 1_555 1_555
H31 C37 1_555 1_555
C38 C33 1_555 1_555
C39 C38 1_555 1_555
C40 C39 1_555 1_555
C41 C40 1_555 1_555
H32 C41 1_555 1_555
C42 C41 1_555 1_555
H33 C42 1_555 1_555
C43 C42 1_555 1_555
C44 C43 1_555 1_555
C45 C40 1_555 1_555
H34 C45 1_555 1_555
N5 C43 1_555 1_555
C46 N5 1_555 1_555
C47 C44 1_555 1_555
C48 C46 1_555 1_555
H35 C48 1_555 1_555
C49 C48 1_555 1_555
H36 C49 1_555 1_555
C50 C49 1_555 1_555
C51 C47 1_555 1_555
H37 C51 1_555 1_555
C52 C50 1_555 1_555
C53 C52 1_555 1_555
C54 C53 1_555 1_555
C55 C54 1_555 1_555
H38 C55 1_555 1_555
N6 Pd1 1_555 1_555
C56 N6 1_555 1_555
H39 C56 1_555 1_555
C57 C56 1_555 1_555
H40 C57 1_555 1_555
C58 C54 1_555 1_555
H41 C58 1_555 1_555
C59 N5 1_555 1_555
H42 C59 1_555 1_555
H43 C59 1_555 1_555
C60 C59 1_555 1_555
H44 C60 1_555 1_555
H45 C60 1_555 1_555
C61 C60 1_555 1_555
H46 C61 1_555 1_555
H47 C61 1_555 1_555
C62 C61 1_555 1_555
H48 C62 1_555 1_555
H49 C62 1_555 1_555
C63 C62 1_555 1_555
H50 C63 1_555 1_555
H51 C63 1_555 1_555
C64 C63 1_555 1_555
H52 C64 1_555 1_555
H53 C64 1_555 1_555
H54 C64 1_555 1_555
N7 C65 1_555 1_555
C65 C66 1_555 1_555
C66 H55 1_555 1_555
C67 C66 1_555 1_555
H56 C67 1_555 1_555
C68 C67 1_555 1_555
C69 C68 1_555 1_555
H57 C69 1_555 1_555
C70 C65 1_555 1_555
O1 C71 1_555 1_555
C71 C70 1_555 1_555
C72 C71 1_555 1_555
C73 C72 1_555 1_555
H58 C73 1_555 1_555
C74 C73 1_555 1_555
C75 C74 1_555 1_555
H59 C75 1_555 1_555
C76 C75 1_555 1_555
H60 C76 1_555 1_555
C77 N7 1_555 1_555
C78 C68 1_555 1_555
C79 C78 1_555 1_555
C80 C79 1_555 1_555
C81 C80 1_555 1_555
C82 C81 1_555 1_555
H61 C82 1_555 1_555
N8 Pd1 1_555 1_555
C83 N8 1_555 1_555
H62 C83 1_555 1_555
C84 C83 1_555 1_555
H63 C84 1_555 1_555
C85 C81 1_555 1_555
C86 C85 1_555 1_555
H64 C86 1_555 1_555
C87 C86 1_555 1_555
H65 C87 1_555 1_555
C88 C80 1_555 1_555
H66 C88 1_555 1_555
C89 C74 1_555 1_555
C90 C89 1_555 1_555
C91 C90 1_555 1_555
C92 C91 1_555 1_555
C93 C92 1_555 1_555
H67 C93 1_555 1_555
N9 Pd2 1_555 1_555
C94 N9 1_555 1_555
H68 C94 1_555 1_555
C95 C94 1_555 1_555
H69 C95 1_555 1_555
C96 C92 1_555 1_555
C97 C96 1_555 1_555
H70 C97 1_555 1_555
C98 C97 1_555 1_555
H71 C98 1_555 1_555
C99 C91 1_555 1_555
H72 C99 1_555 1_555
C100 N7 1_555 1_555
H73 C100 1_555 1_555
H74 C100 1_555 1_555
C101 C100 1_555 1_555
H75 C101 1_555 1_555
H76 C101 1_555 1_555
C102 C101 1_555 1_555
H77 C102 1_555 1_555
H78 C102 1_555 1_555
C103 C102 1_555 1_555
H79 C103 1_555 1_555
H80 C103 1_555 1_555
C104 C103 1_555 1_555
H81 C104 1_555 1_555
H82 C104 1_555 1_555
C105 C104 1_555 1_555
H83 C105 1_555 1_555
H84 C105 1_555 1_555
H85 C105 1_555 1_555
N10 C106 1_555 1_555
C106 C107 1_555 1_555
C107 H86 1_555 1_555
C108 C107 1_555 1_555
H87 C108 1_555 1_555
C109 C108 1_555 1_555
C110 C109 1_555 1_555
H88 C110 1_555 1_555
C111 C106 1_555 1_555
O2 C112 1_555 1_555
C112 C111 1_555 1_555
C113 C112 1_555 1_555
C114 C113 1_555 1_555
H89 C114 1_555 1_555
C115 C114 1_555 1_555
C116 C115 1_555 1_555
H90 C116 1_555 1_555
C117 C116 1_555 1_555
H91 C117 1_555 1_555
C118 N10 1_555 1_555
C119 C109 1_555 1_555
C120 C119 1_555 1_555
C121 C120 1_555 1_555
C122 C121 1_555 1_555
C123 C122 1_555 1_555
H92 C123 1_555 1_555
N11 Pd1 1_555 1_555
C124 N11 1_555 1_555
H93 C124 1_555 1_555
C125 C124 1_555 1_555
H94 C125 1_555 1_555
C126 C122 1_555 1_555
C127 C126 1_555 1_555
H95 C127 1_555 1_555
C128 C127 1_555 1_555
H96 C128 1_555 1_555
C129 C121 1_555 1_555
H97 C129 1_555 1_555
C130 C115 1_555 1_555
C131 C130 1_555 1_555
C132 C131 1_555 1_555
C133 C132 1_555 1_555
C134 C133 1_555 1_555
H98 C134 1_555 1_555
N12 Pd2 1_555 1_555
C135 N12 1_555 1_555
H99 C135 1_555 1_555
C136 C135 1_555 1_555
H100 C136 1_555 1_555
C137 C133 1_555 1_555
C138 C137 1_555 1_555
H101 C138 1_555 1_555
C139 C138 1_555 1_555
H102 C139 1_555 1_555
C140 C132 1_555 1_555
H103 C140 1_555 1_555
C141 N10 1_555 1_555
H104 C141 1_555 1_555
H105 C141 1_555 1_555
C142 C141 1_555 1_555
H106 C142 1_555 1_555
H107 C142 1_555 1_555
C143 C142 1_555 1_555
H108 C143 1_555 1_555
H109 C143 1_555 1_555
C144 C143 1_555 1_555
H110 C144 1_555 1_555
H111 C144 1_555 1_555
C145 C144 1_555 1_555
H112 C145 1_555 1_555
H113 C145 1_555 1_555
C146 C145 1_555 1_555
H114 C146 1_555 1_555
H115 C146 1_555 1_555
H116 C146 1_555 1_555
O3 C147 1_555 1_555
C147 H117 1_555 1_555
C148 C147 1_555 1_555
H118 C148 1_555 1_555
H119 C148 1_555 1_555
H120 C148 1_555 1_555
C149 C147 1_555 1_555
H121 C149 1_555 1_555
H122 C149 1_555 1_555
H123 C149 1_555 1_555
C150 O3 1_555 1_555
H124 C150 1_555 1_555
C151 C150 1_555 1_555
H125 C151 1_555 1_555
H126 C151 1_555 1_555
H127 C151 1_555 1_555
C152 C150 1_555 1_555
H128 C152 1_555 1_555
H129 C152 1_555 1_555
H130 C152 1_555 1_555
O4 C153 1_555 1_555
C153 H134 1_555 1_555
C154 C153 1_555 1_555
H135 C154 1_555 1_555
H136 C154 1_555 1_555
H137 C154 1_555 1_555
C155 C153 1_555 1_555
H138 C155 1_555 1_555
H139 C155 1_555 1_555
H140 C155 1_555 1_555
C156 O4 1_555 1_555
H141 C156 1_555 1_555
C157 C156 1_555 1_555
H142 C157 1_555 1_555
H143 C157 1_555 1_555
H144 C157 1_555 1_555
C158 C156 1_555 1_555
H145 C158 1_555 1_555
H146 C158 1_555 1_555
H147 C158 1_555 1_555
B1 F1 1_555 1_555
F2 B1 1_555 1_555
F3 B1 1_555 1_555
F4 B1 1_555 1_555
B2 F5 1_555 1_555
F6 B2 1_555 1_555
F7 B2 1_555 1_555
F8 B2 1_555 1_555
B3 F9 1_555 1_555
F10 B3 1_555 1_555
F11 B3 1_555 1_555
F12 B3 1_555 1_555
B4 F13 1_555 1_555
F14 B4 1_555 1_555
F15 B4 1_555 1_555
F16 B4 1_555 1_555
N13 C159 1_555 1_555
C159 C160 1_555 1_555
C160 H148 1_555 1_555
H149 C160 1_555 1_555
H150 C160 1_555 1_555
N14 C161 1_555 1_555
C161 C162 1_555 1_555
C162 H151 1_555 1_555
H152 C162 1_555 1_555
H153 C162 1_555 1_555
N15 C163 1_555 1_555
C163 C164 1_555 1_555
C164 H154 1_555 1_555
H155 C164 1_555 1_555
H156 C164 1_555 1_555
C4 C5 1_555 1_555
C12 C13 1_555 1_555
C14 C15 1_555 1_555
C18 C19 1_555 1_555
C25 C26 1_555 1_555
C34 N4 1_555 1_555
C36 C37 1_555 1_555
C44 C45 1_555 1_555
C46 C47 1_555 1_555
C50 C51 1_555 1_555
C55 N6 1_555 1_555
C57 C58 1_555 1_555
C69 C70 1_555 1_555
C72 C77 1_555 1_555
C76 C77 1_555 1_555
C82 N8 1_555 1_555
C84 C85 1_555 1_555
C87 C88 1_555 1_555
C93 N9 1_555 1_555
C95 C96 1_555 1_555
C98 C99 1_555 1_555
C110 C111 1_555 1_555
C113 C118 1_555 1_555
C117 C118 1_555 1_555
C123 N11 1_555 1_555
C125 C126 1_555 1_555
C128 C129 1_555 1_555
C134 N12 1_555 1_555
C136 C137 1_555 1_555
C139 C140 1_555 1_555

#END
