
#######################################################################
#
#                 Cambridge Crystallographic Data Centre
#                                CCDC 
#
#######################################################################
#
# If this CIF has been generated from an entry in the Cambridge 
# Structural Database, then it will include bibliographic, chemical, 
# crystal, experimental, refinement or atomic coordinate data resulting 
# from the CCDC's data processing and validation procedures.
#
#######################################################################

data_ZECPOP
_chemical_formula_moiety         'C68 H18 F20 N12 Ni2,C1 H1 Cl3'
_chemical_name_systematic        
'(\m-46,50-dicyano-3,24-bis(imino)-9,18,30,39-tetrakis(pentafluorophenyl)-4,25,43,44,45,47,48,49-octaazaundecacyclo[38.2.1.1^2,5^.1^10,13^.1^14,17^.1^19,22^.1^23,26^.1^31,34^.1^35,38^.0^4,8^.0^25,29^]pentaconta-1,5(50),6,8,10,12,14(48),15,17,19,21,23(46),26,28,30,32,34,36,38(44),39,41-henicosaene expanded porphyrinoid)-di-nickel(ii) chloroform solvate'
_symmetry_cell_setting           monoclinic
_symmetry_space_group_name_H-M   'P 21/a'
_symmetry_Int_Tables_number      14
_space_group_name_Hall           '-P 2yab'
loop_
_symmetry_equiv_pos_site_id
_symmetry_equiv_pos_as_xyz
1 x,y,z
2 1/2-x,1/2+y,-z
3 -x,-y,-z
4 1/2+x,1/2-y,z
_cell_length_a                   26.083(5)
_cell_length_b                   13.252(3)
_cell_length_c                   17.938(4)
_cell_angle_alpha                90
_cell_angle_beta                 105.99(3)
_cell_angle_gamma                90
_cell_volume                     5960.41
_exptl_crystal_colour            brown
_exptl_crystal_description       Rod
_chemical_melting_point          'above 350 K'
_cell_formula_units_Z            4
_exptl_crystal_recrystallization_method chloroform/methanol
loop_
_atom_site_label
_atom_site_type_symbol
_atom_site_fract_x
_atom_site_fract_y
_atom_site_fract_z
Ni1 Ni 0.59883(2) 0.07795(5) 0.65253(3)
Ni2 Ni 0.50779(2) -0.34499(5) 0.72890(3)
F1 F 0.61013(12) 0.0090(2) 0.90393(16)
N1 N 0.51199(16) -0.4546(3) 0.6695(2)
F2 F 0.63999(13) -0.4460(2) 0.84014(19)
F3 F 0.68967(11) 0.1433(3) 0.94342(17)
N2 N 0.52724(15) 0.0514(3) 0.6478(2)
N3 N 0.57601(15) -0.3200(3) 0.7175(2)
F4 F 0.37562(13) -0.8800(2) 0.74623(18)
F5 F 0.37848(12) -0.6034(2) 0.52384(17)
C1 C 0.71005(19) 0.1243(4) 0.7198(3)
F6 F 0.67598(13) 0.4400(2) 0.56897(19)
N4 N 0.62535(15) -0.0222(3) 0.7253(2)
H1 H 0.6044 -0.0715 0.7275
F7 F 0.32234(13) -0.7766(3) 0.48523(18)
C2 C 0.71299(18) 0.0518(4) 0.7782(3)
F8 F 0.51169(11) 0.2358(2) 0.71486(16)
F9 F 0.55094(13) -0.4808(3) 1.03189(19)
F10 F 0.59109(13) 0.3706(2) 0.75767(19)
C3 C 0.55157(19) -0.4545(4) 0.6335(3)
F11 F 0.68079(12) 0.3246(3) 0.87000(18)
F12 F 0.32083(12) -0.9146(2) 0.59545(19)
F13 F 0.43096(12) -0.7089(2) 0.78519(16)
N5 N 0.69262(15) -0.0927(3) 0.8317(2)
N6 N 0.56790(16) 0.1468(3) 0.5634(2)
C4 C 0.66400(19) 0.2986(4) 0.4852(3)
N7 N 0.49973(16) -0.2140(3) 0.7601(2)
H2 H 0.5202 -0.1687 0.7492
C5 C 0.49888(18) 0.0194(4) 0.6982(2)
C6 C 0.67692(19) 0.2049(4) 0.6085(3)
C7 C 0.5881(2) 0.2066(4) 0.5162(3)
C8 C 0.4776(2) 0.0524(4) 0.8942(3)
H3 H 0.4922 0.1137 0.9149
C9 C 0.67275(18) -0.0243(4) 0.7729(3)
F14 F 0.56874(13) -0.1597(2) 0.93329(17)
C10 C 0.58858(19) -0.3746(4) 0.6603(3)
C11 C 0.48895(19) 0.0031(4) 0.8315(3)
C12 C 0.65805(19) -0.2730(4) 0.7096(3)
H4 H 0.6900 -0.2379 0.7180
C13 C 0.73877(19) -0.0536(4) 0.8826(3)
N8 N 0.44523(16) -0.3930(3) 0.7474(2)
C14 C 0.6038(2) 0.0983(4) 0.8673(3)
N9 N 0.66515(16) 0.1347(3) 0.6584(2)
C15 C 0.67114(19) -0.1694(4) 0.8697(3)
F15 F 0.65543(14) 0.1642(3) 0.39663(19)
C16 C 0.63887(19) -0.3440(4) 0.6538(3)
H5 H 0.6559 -0.3678 0.6180
C17 C 0.3792(2) -0.4992(4) 0.7617(3)
H6 H 0.3568 -0.5549 0.7563
C18 C 0.5024(2) -0.5924(4) 0.5922(3)
H7 H 0.4893 -0.6527 0.5679
C19 C 0.5659(2) -0.4222(4) 0.9809(3)
C20 C 0.7963(2) 0.0989(4) 0.8830(3)
C21 C 0.49188(19) 0.0704(4) 0.5776(3)
F16 F 0.72756(14) 0.5424(3) 0.4817(2)
C22 C 0.44066(19) 0.0362(4) 0.5778(3)
H8 H 0.4101 0.0371 0.5362
C23 C 0.64471(19) 0.1669(4) 0.8879(3)
F17 F 0.60140(15) -0.5636(3) 0.9333(2)
C24 C 0.6410(2) 0.2359(4) 0.5379(3)
F18 F 0.70588(16) 0.2684(3) 0.3093(2)
C25 C 0.6127(2) -0.4019(4) 0.8847(3)
C26 C 0.6821(2) 0.3957(4) 0.5044(3)
C27 C 0.5576(2) -0.3210(4) 0.9795(3)
F19 F 0.74311(15) 0.4564(3) 0.3526(2)
C28 C 0.60630(19) -0.2973(4) 0.8835(3)
C29 C 0.42196(19) -0.4854(4) 0.7259(3)
C30 C 0.5444(2) 0.2291(4) 0.4484(3)
H9 H 0.5464 0.2690 0.4067
C31 C 0.41862(19) -0.3483(4) 0.7954(3)
C32 C 0.4372(2) -0.5549(4) 0.6758(3)
C33 C 0.5160(2) 0.0379(4) 0.7782(3)
C34 C 0.5951(2) 0.2813(4) 0.7926(3)
F20 F 0.53114(14) -0.2789(3) 1.02657(18)
C35 C 0.75370(19) 0.0315(4) 0.8488(3)
C36 C 0.70604(19) -0.1734(4) 0.9474(3)
H10 H 0.7015 -0.2152 0.9867
C37 C 0.34798(19) -0.8287(4) 0.6146(3)
C38 C 0.5553(2) 0.2106(4) 0.7721(3)
C39 C 0.75039(19) 0.1907(4) 0.7110(3)
H11 H 0.7839 0.2003 0.7455
C40 C 0.5777(2) -0.2592(4) 0.9320(3)
C41 C 0.6415(2) 0.2579(4) 0.8513(3)
C42 C 0.46584(19) -0.1845(4) 0.7969(3)
C43 C 0.51493(19) 0.1289(4) 0.5290(3)
C44 C 0.61954(19) -0.2626(4) 0.7532(3)
C45 C 0.34917(19) -0.7583(4) 0.5587(3)
C46 C 0.3814(2) -0.2314(4) 0.9249(3)
C47 C 0.48066(19) -0.5362(4) 0.6457(3)
C48 C 0.44448(19) 0.0012(4) 0.6511(3)
H12 H 0.4173 -0.0287 0.6677
C49 C 0.4302(2) -0.2506(4) 0.8232(3)
C50 C 0.37851(19) -0.6707(4) 0.5795(3)
C51 C 0.4313(2) -0.0926(4) 0.8780(3)
N10 N 0.45974(16) -0.0872(3) 0.8227(2)
C52 C 0.40634(19) -0.6505(4) 0.6556(3)
C53 C 0.40401(19) -0.7220(4) 0.7104(3)
C54 C 0.4105(2) -0.1926(4) 0.8761(3)
C55 C 0.3778(2) -0.4157(4) 0.8047(3)
H13 H 0.3545 -0.4041 0.8348
C56 C 0.7088(2) 0.4499(5) 0.4602(4)
C57 C 0.4999(2) 0.1818(4) 0.4565(3)
H14 H 0.4661 0.1834 0.4216
C58 C 0.63043(19) -0.2333(4) 0.8331(3)
C59 C 0.55790(18) 0.1166(4) 0.8066(3)
C60 C 0.3759(2) -0.8100(4) 0.6924(3)
C61 C 0.4414(2) -0.0038(4) 0.9207(3)
H15 H 0.4264 0.0148 0.9601
C62 C 0.7302(2) 0.2382(4) 0.6411(3)
H16 H 0.7483 0.2845 0.6188
C63 C 0.7468(2) -0.1062(4) 0.9541(3)
H17 H 0.7752 -0.0964 0.9981
C64 C 0.6714(2) 0.2585(5) 0.4181(3)
C65 C 0.5453(2) -0.5411(4) 0.5844(3)
H18 H 0.5667 -0.5588 0.5528
C66 C 0.6974(2) 0.3118(5) 0.3731(3)
C67 C 0.7163(2) 0.4067(5) 0.3946(4)
C68 C 0.5932(2) -0.4640(4) 0.9321(3)
N11 N 0.82974(19) 0.1553(4) 0.9087(3)
N12 N 0.3580(2) -0.2671(4) 0.9646(3)
Cl1 Cl 0.76534(8) -0.39491(19) 0.87209(13)
Cl2 Cl 0.77341(9) -0.46797(18) 0.72515(11)
Cl3 Cl 0.79581(8) -0.60211(16) 0.85744(10)
C69 C 0.7568(3) -0.4998(6) 0.8109(4)
H19 H 0.7191 -0.5198 0.7973
loop_
_geom_bond_atom_site_label_1
_geom_bond_atom_site_label_2
_geom_bond_site_symmetry_1
_geom_bond_site_symmetry_2
Ni1 N2 1_555 1_555
Ni2 N1 1_555 1_555
F1 C14 1_555 1_555
N1 C3 1_555 1_555
F2 C25 1_555 1_555
F3 C23 1_555 1_555
N2 C5 1_555 1_555
N3 Ni2 1_555 1_555
F4 C60 1_555 1_555
F5 C50 1_555 1_555
C1 C2 1_555 1_555
F6 C26 1_555 1_555
N4 Ni1 1_555 1_555
H1 N4 1_555 1_555
F7 C45 1_555 1_555
C2 C9 1_555 1_555
F8 C38 1_555 1_555
F9 C19 1_555 1_555
F10 C34 1_555 1_555
C3 C10 1_555 1_555
F11 C41 1_555 1_555
F12 C37 1_555 1_555
F13 C53 1_555 1_555
N5 C9 1_555 1_555
N6 Ni1 1_555 1_555
C4 C24 1_555 1_555
N7 Ni2 1_555 1_555
H2 N7 1_555 1_555
C5 C33 1_555 1_555
C6 N9 1_555 1_555
C7 N6 1_555 1_555
C8 H3 1_555 1_555
C9 N4 1_555 1_555
F14 C40 1_555 1_555
C10 N3 1_555 1_555
C11 C8 1_555 1_555
C12 H4 1_555 1_555
C13 N5 1_555 1_555
N8 Ni2 1_555 1_555
C14 C23 1_555 1_555
N9 Ni1 1_555 1_555
C15 N5 1_555 1_555
F15 C64 1_555 1_555
C16 C10 1_555 1_555
H5 C16 1_555 1_555
C17 H6 1_555 1_555
C18 H7 1_555 1_555
C19 C27 1_555 1_555
C20 C35 1_555 1_555
C21 N2 1_555 1_555
F16 C56 1_555 1_555
C22 C21 1_555 1_555
H8 C22 1_555 1_555
C23 C41 1_555 1_555
F17 C68 1_555 1_555
C24 C6 1_555 1_555
F18 C66 1_555 1_555
C25 C28 1_555 1_555
C26 C4 1_555 1_555
C27 F20 1_555 1_555
F19 C67 1_555 1_555
C28 C40 1_555 1_555
C29 N8 1_555 1_555
C30 C7 1_555 1_555
H9 C30 1_555 1_555
C31 N8 1_555 1_555
C32 C29 1_555 1_555
C33 C11 1_555 1_555
C34 C38 1_555 1_555
C35 C2 1_555 1_555
C36 C15 1_555 1_555
H10 C36 1_555 1_555
C37 C45 1_555 1_555
C38 C59 1_555 1_555
C39 C1 1_555 1_555
H11 C39 1_555 1_555
C40 C27 1_555 1_555
C41 C34 1_555 1_555
C42 N7 1_555 1_555
C43 N6 1_555 1_555
C44 N3 1_555 1_555
C45 C50 1_555 1_555
C46 C54 1_555 1_555
C47 N1 1_555 1_555
C48 C5 1_555 1_555
H12 C48 1_555 1_555
C49 C31 1_555 1_555
C50 C52 1_555 1_555
C51 N10 1_555 1_555
N10 C11 1_555 1_555
C52 C32 1_555 1_555
C53 C52 1_555 1_555
C54 C49 1_555 1_555
C55 C17 1_555 1_555
H13 C55 1_555 1_555
C56 C26 1_555 1_555
C57 C30 1_555 1_555
H14 C57 1_555 1_555
C58 C15 1_555 1_555
C59 C14 1_555 1_555
C60 C37 1_555 1_555
C61 C8 1_555 1_555
H15 C61 1_555 1_555
C62 C6 1_555 1_555
H16 C62 1_555 1_555
C63 C13 1_555 1_555
H17 C63 1_555 1_555
C64 C4 1_555 1_555
C65 C3 1_555 1_555
H18 C65 1_555 1_555
C66 C64 1_555 1_555
C67 C56 1_555 1_555
C68 C19 1_555 1_555
N11 C20 1_555 1_555
N12 C46 1_555 1_555
Cl1 C69 1_555 1_555
Cl2 C69 1_555 1_555
Cl3 C69 1_555 1_555
C69 H19 1_555 1_555
C1 N9 1_555 1_555
C7 C24 1_555 1_555
C12 C16 1_555 1_555
C12 C44 1_555 1_555
C13 C35 1_555 1_555
C17 C29 1_555 1_555
C18 C47 1_555 1_555
C18 C65 1_555 1_555
C21 C43 1_555 1_555
C22 C48 1_555 1_555
C25 C68 1_555 1_555
C28 C58 1_555 1_555
C31 C55 1_555 1_555
C32 C47 1_555 1_555
C33 C59 1_555 1_555
C36 C63 1_555 1_555
C39 C62 1_555 1_555
C42 C49 1_555 1_555
C42 N10 1_555 1_555
C43 C57 1_555 1_555
C44 C58 1_555 1_555
C51 C54 1_555 1_555
C51 C61 1_555 1_555
C53 C60 1_555 1_555
C66 C67 1_555 1_555

#END
