
#######################################################################
#
#                 Cambridge Crystallographic Data Centre
#                                CCDC 
#
#######################################################################
#
# If this CIF has been generated from an entry in the Cambridge 
# Structural Database, then it will include bibliographic, chemical, 
# crystal, experimental, refinement or atomic coordinate data resulting 
# from the CCDC's data processing and validation procedures.
#
#######################################################################

data_ZOQHOE
_chemical_formula_moiety         'C128 H108 N12 Pd2 4+,4(B1 F4 1-)'
_chemical_name_systematic        
'tetrakis(\m-9-hexyl-3,6-bis((pyridin-3-yl)ethynyl)-9H-carbazole)-di-palladium tetrakis(tetrafluoroborate) unknown solvate'
_symmetry_cell_setting           monoclinic
_symmetry_space_group_name_H-M   'P 21/n'
_symmetry_Int_Tables_number      14
_space_group_name_Hall           '-P 2yn'
loop_
_symmetry_equiv_pos_site_id
_symmetry_equiv_pos_as_xyz
1 x,y,z
2 1/2-x,1/2+y,1/2-z
3 -x,-y,-z
4 1/2+x,1/2-y,1/2+z
_cell_length_a                   15.425(3)
_cell_length_b                   28.071(6)
_cell_length_c                   37.184(7)
_cell_angle_alpha                90
_cell_angle_beta                 97.84(3)
_cell_angle_gamma                90
_cell_volume                     15950
_exptl_crystal_colour            colorless
_exptl_crystal_description       block
_cell_formula_units_Z            4
_chemical_properties_physical    
'Air-sensitive, Moisture-sensitive, Hygroscopic'
_exptl_crystal_recrystallization_method 'Vapour Deposition'
loop_
_atom_site_label
_atom_site_type_symbol
_atom_site_fract_x
_atom_site_fract_y
_atom_site_fract_z
B1 B -0.0121(6) 0.4293(4) 1.0268(3)
F1 F 0.0704(3) 0.4442(2) 1.02400(15)
F2 F -0.0052(4) 0.3864(2) 1.04510(16)
F3 F -0.0557(4) 0.4613(2) 1.04507(17)
F4 F -0.0574(3) 0.42118(18) 0.99263(14)
B2 B -0.0406(10) 0.3309(6) 0.8078(4)
F5 F -0.0290(8) 0.3168(5) 0.8429(3)
F6 F 0.0228(8) 0.3646(5) 0.8052(4)
F7 F -0.1212(7) 0.3515(5) 0.8008(4)
F8 F -0.0329(8) 0.2946(5) 0.7850(3)
B3 B 0.0341(11) 0.2075(6) 0.6721(5)
F9 F 0.0294(9) 0.2452(5) 0.6948(4)
F10 F -0.0301(9) 0.1752(4) 0.6764(5)
F11 F 0.0212(9) 0.2207(4) 0.6368(4)
F12 F 0.1144(8) 0.1868(5) 0.6804(5)
F13 F -0.0102(4) -0.08574(19) 0.56946(14)
B4 B 0.0172(7) -0.1046(4) 0.5400(3)
F14 F 0.0668(6) -0.1458(3) 0.5522(2)
F15 F -0.0463(4) -0.1227(2) 0.51516(15)
F16 F 0.0686(4) -0.0753(2) 0.52317(15)
Pd1 Pd 0.02732(4) 0.16881(2) 0.56610(2)
Pd2 Pd -0.03969(4) 0.37490(2) 0.91314(2)
C1 C 0.6853(6) 0.3683(3) 0.7674(3)
H1 H 0.7184 0.3494 0.7521
H2 H 0.7101 0.3626 0.7924
N1 N 0.5951(4) 0.3521(3) 0.7621(2)
N2 N 0.1601(4) 0.1735(2) 0.57143(19)
N3 N 0.0846(4) 0.3979(3) 0.91633(18)
C2 C 0.6717(7) 0.5456(3) 0.6616(3)
H3 H 0.6928 0.5494 0.6386
H4 H 0.7091 0.5626 0.6800
H5 H 0.6133 0.5580 0.6599
C3 C 0.6715(7) 0.4941(3) 0.6712(2)
H6 H 0.7220 0.4790 0.6631
H7 H 0.6196 0.4794 0.6581
C4 C 0.6733(7) 0.4843(3) 0.7110(2)
H8 H 0.7246 0.4993 0.7242
H9 H 0.6220 0.4985 0.7191
C5 C 0.6749(7) 0.4321(3) 0.7195(2)
H10 H 0.6181 0.4188 0.7105
H11 H 0.7177 0.4170 0.7064
C6 C 0.6962(6) 0.4199(3) 0.7588(2)
H12 H 0.6588 0.4386 0.7724
H13 H 0.7562 0.4291 0.7670
C7 C 0.4076(5) 0.2972(3) 0.7119(2)
H14 H 0.3502 0.2910 0.7155
C8 C 0.4379(5) 0.2825(3) 0.6805(2)
C9 C 0.5239(5) 0.2901(3) 0.6753(2)
H15 H 0.5432 0.2788 0.6542
C10 C 0.5816(6) 0.3141(3) 0.7004(2)
H16 H 0.6388 0.3202 0.6965
C11 C 0.5502(5) 0.3289(2) 0.7322(2)
C12 C 0.4636(4) 0.3212(2) 0.7378(2)
C13 C 0.4546(4) 0.3407(3) 0.7732(2)
C14 C 0.5358(5) 0.3599(3) 0.7871(2)
C15 C 0.5525(5) 0.3828(3) 0.8208(2)
H17 H 0.6071 0.3957 0.8290
C16 C 0.4848(5) 0.3854(3) 0.8409(2)
H18 H 0.4937 0.3991 0.8639
C17 C 0.4026(5) 0.3676(3) 0.8273(2)
C18 C 0.3867(5) 0.34509(19) 0.7944(2)
H19 H 0.3315 0.3329 0.7862
C19 C 0.3791(6) 0.2563(3) 0.6523(3)
C20 C 0.3385(6) 0.2341(3) 0.6285(3)
C21 C 0.2045(5) 0.2004(3) 0.5971(2)
H20 H 0.1740 0.2165 0.6132
C22 C 0.2943(5) 0.2052(3) 0.6006(2)
C23 C 0.3396(5) 0.1787(3) 0.5778(2)
H21 H 0.4003 0.1801 0.5801
C24 C 0.2939(5) 0.1505(3) 0.5516(2)
H22 H 0.3234 0.1332 0.5357
C25 C 0.2042(5) 0.1478(3) 0.5492(2)
H23 H 0.1734 0.1280 0.5319
C26 C 0.3333(6) 0.3729(3) 0.8509(3)
C27 C 0.2795(6) 0.3816(3) 0.8692(3)
C28 C 0.1392(5) 0.3832(3) 0.8931(2)
H24 H 0.1182 0.3624 0.8744
C29 C 0.2240(5) 0.3979(3) 0.8961(2)
C30 C 0.2551(5) 0.4304(3) 0.9229(2)
H25 H 0.3122 0.4416 0.9246
C31 C 0.2003(5) 0.4459(3) 0.9471(2)
H26 H 0.2205 0.4672 0.9655
C32 C 0.1148(5) 0.4293(3) 0.9433(2)
H27 H 0.0774 0.4397 0.9593
C33 C -0.0971(5) 0.4751(2) 0.9117(2)
H28 H -0.0942 0.4708 0.9366
N4 N -0.0784(4) 0.4376(2) 0.89078(17)
N5 N 0.0194(6) 0.2331(2) 0.54161(19)
N6 N -0.0659(8) 0.5762(2) 0.6315(2)
C34 C 0.0311(9) 0.6401(4) 0.6217(4)
H29 H 0.0348 0.6733 0.6157
H30 H 0.0613 0.6215 0.6056
H31 H 0.0575 0.6351 0.6463
C35 C -0.0634(9) 0.6253(3) 0.6177(4)
H32 H -0.0962 0.6464 0.6314
H33 H -0.0889 0.6266 0.5923
C36 C -0.0567(8) 0.4499(3) 0.6234(3)
H34 H -0.0595 0.4238 0.6386
C37 C -0.0469(9) 0.4432(3) 0.5879(3)
C38 C -0.0465(9) 0.4814(3) 0.5639(3)
H35 H -0.0426 0.4760 0.5395
C39 C -0.0518(9) 0.5278(3) 0.5769(3)
H36 H -0.0503 0.5538 0.5615
C40 C -0.0593(8) 0.5342(3) 0.6128(3)
C41 C -0.0627(7) 0.4960(3) 0.6370(3)
C42 C -0.0727(6) 0.5159(3) 0.6718(2)
C43 C -0.0746(7) 0.5657(3) 0.6671(2)
C44 C -0.0804(7) 0.5966(3) 0.6959(2)
H37 H -0.0794 0.6294 0.6930
C45 C -0.0877(5) 0.5758(3) 0.7292(2)
H38 H -0.0937 0.5955 0.7488
C46 C -0.0865(5) 0.5269(3) 0.7345(2)
C47 C -0.0781(3) 0.4964(3) 0.7057(2)
H39 H -0.0763 0.4636 0.7091
C48 C -0.0417(8) 0.3955(4) 0.5733(3)
C49 C -0.0274(10) 0.3590(4) 0.5601(3)
C50 C -0.0012(7) 0.2726(3) 0.5583(2)
H40 H -0.0122 0.2707 0.5822
C51 C -0.0069(8) 0.3168(3) 0.5408(2)
C52 C 0.0061(9) 0.3186(3) 0.5053(3)
H41 H 0.0009 0.3475 0.4929
C53 C 0.0266(9) 0.2783(3) 0.4879(3)
H42 H 0.0355 0.2792 0.4636
C54 C 0.0340(7) 0.2355(3) 0.5072(2)
H43 H 0.0495 0.2079 0.4958
C55 C -0.0934(4) 0.5100(3) 0.7693(3)
C56 C -0.0963(5) 0.4984(3) 0.8004(3)
C57 C -0.0792(5) 0.4452(2) 0.8545(2)
H44 H -0.0639 0.4203 0.8401
C58 C -0.1024(5) 0.4890(2) 0.83841(19)
C59 C -0.1214(5) 0.5267(3) 0.8603(2)
H45 H -0.1349 0.5566 0.8503
C60 C -0.1201(5) 0.5192(2) 0.8973(2)
H46 H -0.1346 0.5437 0.9122
N7 N -0.1664(4) 0.3541(2) 0.91201(19)
N8 N -0.5958(4) 0.1649(2) 0.7249(2)
N9 N -0.1045(5) 0.1629(2) 0.5582(2)
C61 C -0.6852(6) 0.1479(4) 0.7210(3)
H47 H -0.7097 0.1485 0.6956
H48 H -0.7198 0.1690 0.7340
C62 C -0.6912(6) 0.0965(4) 0.7358(3)
H49 H -0.7499 0.0848 0.7279
H50 H -0.6514 0.0767 0.7243
C63 C -0.6626(13) -0.0213(7) 0.8377(5)
H51 H -0.7151 -0.0382 0.8287
H52 H -0.6517 -0.0241 0.8637
H53 H -0.6142 -0.0344 0.8273
C64 C -0.6733(9) 0.0319(5) 0.8272(4)
H54 H -0.7274 0.0440 0.8343
H55 H -0.6252 0.0500 0.8400
C65 C -0.6749(8) 0.0378(5) 0.7862(4)
H56 H -0.6250 0.0212 0.7789
H57 H -0.7275 0.0230 0.7739
C66 C -0.3911(5) 0.1758(3) 0.6907(2)
H58 H -0.3356 0.1873 0.6991
C67 C -0.4074(5) 0.1566(3) 0.6562(2)
C68 C -0.4896(6) 0.1356(3) 0.6445(3)
H59 H -0.5000 0.1213 0.6218
C69 C -0.5547(6) 0.1361(3) 0.6666(2)
H60 H -0.6087 0.1221 0.6589
C70 C -0.5390(5) 0.1575(3) 0.6998(2)
C71 C -0.4573(5) 0.1781(2) 0.7132(2)
C72 C -0.4638(5) 0.1977(3) 0.7473(2)
C73 C -0.5506(5) 0.1883(3) 0.7549(2)
C74 C -0.5790(5) 0.2031(3) 0.7856(2)
H61 H -0.6361 0.1967 0.7896
C75 C -0.5231(5) 0.2278(3) 0.8113(2)
H62 H -0.5430 0.2385 0.8324
C76 C -0.4359(5) 0.2368(3) 0.8057(2)
C77 C -0.4078(5) 0.2225(3) 0.7743(2)
H63 H -0.3507 0.2291 0.7705
C78 C -0.3424(5) 0.1556(3) 0.6323(2)
C79 C -0.2940(6) 0.1556(3) 0.6099(3)
C80 C -0.1534(6) 0.1612(3) 0.5859(3)
H64 H -0.1252 0.1646 0.6095
C81 C -0.2403(6) 0.1550(3) 0.5808(3)
C82 C -0.2833(7) 0.1494(4) 0.5456(3)
H65 H -0.3435 0.1445 0.5414
C83 C -0.2344(7) 0.1513(5) 0.5171(3)
H66 H -0.2605 0.1483 0.4931
C84 C -0.1479(7) 0.1576(4) 0.5253(3)
H67 H -0.1154 0.1582 0.5060
C85 C -0.3807(5) 0.2624(3) 0.8323(2)
C86 C -0.3383(5) 0.2851(3) 0.8565(2)
C87 C -0.2073(5) 0.3271(2) 0.8866(2)
H68 H -0.1759 0.3158 0.8687
C88 C -0.2947(5) 0.3141(3) 0.8845(2)
C89 C -0.3390(6) 0.3312(3) 0.9127(2)
H69 H -0.3978 0.3243 0.9131
C90 C -0.2947(6) 0.3575(4) 0.9385(3)
H70 H -0.3235 0.3679 0.9574
C91 C -0.2100(6) 0.3700(3) 0.9388(3)
H71 H -0.1822 0.3893 0.9572
C92 C -0.6725(7) 0.0888(4) 0.7745(3)
H72 H -0.7145 0.1067 0.7863
H73 H -0.6149 0.1016 0.7829
N10 N 0.0384(4) 0.1031(2) 0.58794(16)
C93 C 0.2685(8) -0.1191(4) 0.9209(3)
H74 H 0.2738 -0.1201 0.9469
H75 H 0.3220 -0.1074 0.9136
H76 H 0.2570 -0.1505 0.9113
N11 N -0.0005(5) 0.3138(2) 0.93857(17)
C94 C 0.1945(8) -0.0865(3) 0.9065(3)
H77 H 0.1599 -0.0794 0.9257
H78 H 0.2181 -0.0568 0.8987
C95 C 0.1366(7) -0.1083(4) 0.8751(3)
H79 H 0.1682 -0.1095 0.8543
H80 H 0.1230 -0.1408 0.8813
C96 C 0.0126(6) 0.3137(3) 0.9755(2)
H81 H 0.0040 0.3417 0.9879
N12 N 0.0695(9) -0.0331(3) 0.8485(2)
C97 C 0.0644(5) 0.0491(2) 0.63775(18)
C98 C 0.0625(6) 0.0116(3) 0.6139(2)
H82 H 0.0696 -0.0195 0.6226
C99 C 0.0500(6) 0.0202(3) 0.5772(2)
H83 H 0.0505 -0.0046 0.5607
C100 C 0.0367(5) 0.0659(2) 0.56554(19)
H84 H 0.0259 0.0715 0.5407
C101 C 0.0606(6) 0.1500(3) 0.9061(3)
C102 C 0.0513(7) 0.1865(3) 0.9211(3)
C103 C 0.0133(6) 0.2735(3) 0.9210(2)
H85 H 0.0056 0.2737 0.8958
C104 C 0.0764(5) 0.0265(3) 0.8075(2)
C105 C 0.0732(6) 0.0475(2) 0.8432(2)
C106 C 0.0692(7) 0.0101(3) 0.8679(2)
C107 C 0.0629(8) 0.0173(3) 0.9044(3)
H86 H 0.0606 -0.0081 0.9202
C108 C 0.0603(8) 0.0639(3) 0.9160(3)
H87 H 0.0565 0.0702 0.9403
C109 C 0.0633(7) 0.1020(3) 0.8916(2)
C110 C 0.0665(4) 0.0939(3) 0.8551(2)
H88 H 0.0641 0.1192 0.8389
C111 C 0.0797(5) 0.0298(3) 0.7080(2)
C112 C 0.0716(6) 0.0409(3) 0.6757(2)
C113 C 0.0506(5) 0.0952(2) 0.6231(2)
H89 H 0.0501 0.1209 0.6389
C114 C 0.0528(7) -0.0817(4) 0.8648(3)
H90 H 0.0237 -0.0774 0.8861
H91 H 0.0144 -0.1002 0.8472
C115 C 0.0763(5) 0.0445(3) 0.7736(2)
H92 H 0.0748 0.0773 0.7699
C116 C 0.0784(5) 0.0137(2) 0.7443(2)
C117 C 0.0795(5) -0.0353(3) 0.7506(2)
H93 H 0.0821 -0.0556 0.7311
C118 C 0.0771(6) -0.0548(3) 0.7841(2)
H94 H 0.0778 -0.0876 0.7878
C119 C 0.0734(6) -0.0226(3) 0.8122(2)
C120 C 0.0388(6) 0.2312(3) 0.9391(2)
C121 C 0.0511(7) 0.2310(3) 0.9766(2)
H95 H 0.0676 0.2032 0.9893
C122 C 0.0386(7) 0.2727(3) 0.9951(2)
H96 H 0.0474 0.2734 1.0204
loop_
_geom_bond_atom_site_label_1
_geom_bond_atom_site_label_2
_geom_bond_site_symmetry_1
_geom_bond_site_symmetry_2
Pd1 N2 1_555 1_555
Pd2 N3 1_555 1_555
C1 H1 1_555 1_555
H2 C1 1_555 1_555
N1 C1 1_555 1_555
N2 C21 1_555 1_555
N3 C28 1_555 1_555
C2 H3 1_555 1_555
H4 C2 1_555 1_555
H5 C2 1_555 1_555
C3 C2 1_555 1_555
H6 C3 1_555 1_555
H7 C3 1_555 1_555
C4 C3 1_555 1_555
H8 C4 1_555 1_555
H9 C4 1_555 1_555
C5 C4 1_555 1_555
H10 C5 1_555 1_555
H11 C5 1_555 1_555
C6 C1 1_555 1_555
H12 C6 1_555 1_555
H13 C6 1_555 1_555
C7 H14 1_555 1_555
C8 C7 1_555 1_555
C9 C8 1_555 1_555
H15 C9 1_555 1_555
C10 C9 1_555 1_555
H16 C10 1_555 1_555
C11 N1 1_555 1_555
C12 C7 1_555 1_555
C13 C12 1_555 1_555
C14 N1 1_555 1_555
C15 C14 1_555 1_555
H17 C15 1_555 1_555
C16 C15 1_555 1_555
H18 C16 1_555 1_555
C17 C16 1_555 1_555
C18 C13 1_555 1_555
H19 C18 1_555 1_555
C19 C8 1_555 1_555
C20 C19 1_555 1_555
C21 H20 1_555 1_555
C22 C20 1_555 1_555
C23 C22 1_555 1_555
H21 C23 1_555 1_555
C24 C23 1_555 1_555
H22 C24 1_555 1_555
C25 N2 1_555 1_555
H23 C25 1_555 1_555
C26 C17 1_555 1_555
C27 C26 1_555 1_555
C28 H24 1_555 1_555
C29 C27 1_555 1_555
C30 C29 1_555 1_555
H25 C30 1_555 1_555
C31 C30 1_555 1_555
H26 C31 1_555 1_555
C32 N3 1_555 1_555
H27 C32 1_555 1_555
C33 H28 1_555 1_555
N4 Pd2 1_555 1_555
N5 Pd1 1_555 1_555
N6 C35 1_555 1_555
C34 H29 1_555 1_555
H30 C34 1_555 1_555
H31 C34 1_555 1_555
C35 C34 1_555 1_555
H32 C35 1_555 1_555
H33 C35 1_555 1_555
C36 H34 1_555 1_555
C37 C36 1_555 1_555
C38 C37 1_555 1_555
H35 C38 1_555 1_555
C39 C38 1_555 1_555
H36 C39 1_555 1_555
C40 N6 1_555 1_555
C41 C36 1_555 1_555
C42 C41 1_555 1_555
C43 N6 1_555 1_555
C44 C43 1_555 1_555
H37 C44 1_555 1_555
C45 C44 1_555 1_555
H38 C45 1_555 1_555
C46 C45 1_555 1_555
C47 C42 1_555 1_555
H39 C47 1_555 1_555
C48 C37 1_555 1_555
C49 C48 1_555 1_555
C50 N5 1_555 1_555
H40 C50 1_555 1_555
C51 C49 1_555 1_555
C52 C51 1_555 1_555
H41 C52 1_555 1_555
C53 C52 1_555 1_555
H42 C53 1_555 1_555
C54 N5 1_555 1_555
H43 C54 1_555 1_555
C55 C46 1_555 1_555
C56 C55 1_555 1_555
C57 N4 1_555 1_555
H44 C57 1_555 1_555
C58 C56 1_555 1_555
C59 C58 1_555 1_555
H45 C59 1_555 1_555
C60 C33 1_555 1_555
H46 C60 1_555 1_555
N7 Pd2 1_555 1_555
N8 C61 1_555 1_555
N9 Pd1 1_555 1_555
C61 H47 1_555 1_555
H48 C61 1_555 1_555
C62 C61 1_555 1_555
H49 C62 1_555 1_555
H50 C62 1_555 1_555
C63 H51 1_555 1_555
H52 C63 1_555 1_555
H53 C63 1_555 1_555
C64 C63 1_555 1_555
H54 C64 1_555 1_555
H55 C64 1_555 1_555
C65 C64 1_555 1_555
H56 C65 1_555 1_555
H57 C65 1_555 1_555
C66 H58 1_555 1_555
C67 C66 1_555 1_555
C68 C67 1_555 1_555
H59 C68 1_555 1_555
C69 C68 1_555 1_555
H60 C69 1_555 1_555
C70 N8 1_555 1_555
C71 C66 1_555 1_555
C72 C71 1_555 1_555
C73 N8 1_555 1_555
C74 C73 1_555 1_555
H61 C74 1_555 1_555
C75 C74 1_555 1_555
H62 C75 1_555 1_555
C76 C75 1_555 1_555
C77 C72 1_555 1_555
H63 C77 1_555 1_555
C78 C67 1_555 1_555
C79 C78 1_555 1_555
C80 N9 1_555 1_555
H64 C80 1_555 1_555
C81 C79 1_555 1_555
C82 C81 1_555 1_555
H65 C82 1_555 1_555
C83 C82 1_555 1_555
H66 C83 1_555 1_555
C84 N9 1_555 1_555
H67 C84 1_555 1_555
C85 C76 1_555 1_555
C86 C85 1_555 1_555
C87 N7 1_555 1_555
H68 C87 1_555 1_555
C88 C86 1_555 1_555
C89 C88 1_555 1_555
H69 C89 1_555 1_555
C90 C89 1_555 1_555
H70 C90 1_555 1_555
C91 N7 1_555 1_555
H71 C91 1_555 1_555
C92 C62 1_555 1_555
H72 C92 1_555 1_555
H73 C92 1_555 1_555
N10 Pd1 1_555 1_555
C93 H74 1_555 1_555
H75 C93 1_555 1_555
H76 C93 1_555 1_555
N11 Pd2 1_555 1_555
C94 C93 1_555 1_555
H77 C94 1_555 1_555
H78 C94 1_555 1_555
C95 C94 1_555 1_555
H79 C95 1_555 1_555
H80 C95 1_555 1_555
C96 N11 1_555 1_555
H81 C96 1_555 1_555
N12 C106 1_555 1_555
C97 C98 1_555 1_555
C98 H82 1_555 1_555
C99 C98 1_555 1_555
H83 C99 1_555 1_555
C100 N10 1_555 1_555
H84 C100 1_555 1_555
C101 C102 1_555 1_555
C102 C120 1_555 1_555
C103 N11 1_555 1_555
H85 C103 1_555 1_555
C104 C105 1_555 1_555
C105 C106 1_555 1_555
C106 C107 1_555 1_555
C107 H86 1_555 1_555
C108 C107 1_555 1_555
H87 C108 1_555 1_555
C109 C101 1_555 1_555
C110 C105 1_555 1_555
H88 C110 1_555 1_555
C111 C112 1_555 1_555
C112 C97 1_555 1_555
C113 N10 1_555 1_555
H89 C113 1_555 1_555
C114 C95 1_555 1_555
H90 C114 1_555 1_555
H91 C114 1_555 1_555
C115 C104 1_555 1_555
H92 C115 1_555 1_555
C116 C111 1_555 1_555
C117 C116 1_555 1_555
H93 C117 1_555 1_555
C118 C117 1_555 1_555
H94 C118 1_555 1_555
C119 N12 1_555 1_555
C120 C103 1_555 1_555
C121 C120 1_555 1_555
H95 C121 1_555 1_555
C122 C96 1_555 1_555
H96 C122 1_555 1_555
B1 F1 1_555 1_555
F2 B1 1_555 1_555
F3 B1 1_555 1_555
F4 B1 1_555 1_555
B2 F5 1_555 1_555
F6 B2 1_555 1_555
F7 B2 1_555 1_555
F8 B2 1_555 1_555
B3 F9 1_555 1_555
F10 B3 1_555 1_555
F11 B3 1_555 1_555
F12 B3 1_555 1_555
F13 B4 1_555 1_555
B4 F14 1_555 1_555
F15 B4 1_555 1_555
F16 B4 1_555 1_555
C5 C6 1_555 1_555
C10 C11 1_555 1_555
C11 C12 1_555 1_555
C13 C14 1_555 1_555
C17 C18 1_555 1_555
C21 C22 1_555 1_555
C24 C25 1_555 1_555
C28 C29 1_555 1_555
C31 C32 1_555 1_555
C33 N4 1_555 1_555
C39 C40 1_555 1_555
C40 C41 1_555 1_555
C42 C43 1_555 1_555
C46 C47 1_555 1_555
C50 C51 1_555 1_555
C53 C54 1_555 1_555
C57 C58 1_555 1_555
C59 C60 1_555 1_555
C65 C92 1_555 1_555
C69 C70 1_555 1_555
C70 C71 1_555 1_555
C72 C73 1_555 1_555
C76 C77 1_555 1_555
C80 C81 1_555 1_555
C83 C84 1_555 1_555
C87 C88 1_555 1_555
C90 C91 1_555 1_555
N12 C114 1_555 1_555
C97 C113 1_555 1_555
C99 C100 1_555 1_555
C104 C119 1_555 1_555
C108 C109 1_555 1_555
C109 C110 1_555 1_555
C115 C116 1_555 1_555
C118 C119 1_555 1_555
C121 C122 1_555 1_555

#END
